  1000.000    283.00      0.00
      0.00    283.00      0.00     10.00      0.00
     50.00    283.15      0.00     10.00      0.00
    100.00    283.29      0.00     10.00      0.00
    150.00    283.44      0.00     10.00      0.00
    200.00    283.59      0.00     10.00      0.00
    250.00    283.74      0.00     10.00      0.00
    300.00    283.88      0.00     10.00      0.00
    350.00    284.03      0.00     10.00      0.00
    400.00    284.18      0.00     10.00      0.00
    450.00    284.32      0.00     10.00      0.00
    500.00    284.47      0.00     10.00      0.00
    550.00    284.62      0.00     10.00      0.00
    600.00    284.77      0.00     10.00      0.00
    650.00    284.92      0.00     10.00      0.00
    700.00    285.06      0.00     10.00      0.00
    750.00    285.21      0.00     10.00      0.00
    800.00    285.36      0.00     10.00      0.00
    850.00    285.51      0.00     10.00      0.00
    900.00    285.66      0.00     10.00      0.00
    950.00    285.80      0.00     10.00      0.00
   1000.00    285.95      0.00     10.00      0.00
   1050.00    286.10      0.00     10.00      0.00
   1100.00    286.25      0.00     10.00      0.00
   1150.00    286.40      0.00     10.00      0.00
   1200.00    286.55      0.00     10.00      0.00
   1250.00    286.69      0.00     10.00      0.00
   1300.00    286.84      0.00     10.00      0.00
   1350.00    286.99      0.00     10.00      0.00
   1400.00    287.14      0.00     10.00      0.00
   1450.00    287.29      0.00     10.00      0.00
   1500.00    287.44      0.00     10.00      0.00
   1550.00    287.59      0.00     10.00      0.00
   1600.00    287.74      0.00     10.00      0.00
   1650.00    287.89      0.00     10.00      0.00
   1700.00    288.04      0.00     10.00      0.00
   1750.00    288.19      0.00     10.00      0.00
   1800.00    288.34      0.00     10.00      0.00
   1850.00    288.49      0.00     10.00      0.00
   1900.00    288.63      0.00     10.00      0.00
   1950.00    288.78      0.00     10.00      0.00
   2000.00    288.93      0.00     10.00      0.00
   2050.00    289.08      0.00     10.00      0.00
   2100.00    289.23      0.00     10.00      0.00
   2150.00    289.38      0.00     10.00      0.00
   2200.00    289.53      0.00     10.00      0.00
   2250.00    289.68      0.00     10.00      0.00
   2300.00    289.84      0.00     10.00      0.00
   2350.00    289.99      0.00     10.00      0.00
   2400.00    290.14      0.00     10.00      0.00
   2450.00    290.29      0.00     10.00      0.00
   2500.00    290.44      0.00     10.00      0.00
   2550.00    290.59      0.00     10.00      0.00
   2600.00    290.74      0.00     10.00      0.00
   2650.00    290.89      0.00     10.00      0.00
   2700.00    291.04      0.00     10.00      0.00
   2750.00    291.19      0.00     10.00      0.00
   2800.00    291.34      0.00     10.00      0.00
   2850.00    291.49      0.00     10.00      0.00
   2900.00    291.64      0.00     10.00      0.00
   2950.00    291.80      0.00     10.00      0.00
   3000.00    291.95      0.00     10.00      0.00
   3050.00    292.10      0.00     10.00      0.00
   3100.00    292.25      0.00     10.00      0.00
   3150.00    292.40      0.00     10.00      0.00
   3200.00    292.55      0.00     10.00      0.00
   3250.00    292.71      0.00     10.00      0.00
   3300.00    292.86      0.00     10.00      0.00
   3350.00    293.01      0.00     10.00      0.00
   3400.00    293.16      0.00     10.00      0.00
   3450.00    293.31      0.00     10.00      0.00
   3500.00    293.47      0.00     10.00      0.00
   3550.00    293.62      0.00     10.00      0.00
   3600.00    293.77      0.00     10.00      0.00
   3650.00    293.92      0.00     10.00      0.00
   3700.00    294.07      0.00     10.00      0.00
   3750.00    294.23      0.00     10.00      0.00
   3800.00    294.38      0.00     10.00      0.00
   3850.00    294.53      0.00     10.00      0.00
   3900.00    294.69      0.00     10.00      0.00
   3950.00    294.84      0.00     10.00      0.00
   4000.00    294.99      0.00     10.00      0.00
   4050.00    295.14      0.00     10.00      0.00
   4100.00    295.30      0.00     10.00      0.00
   4150.00    295.45      0.00     10.00      0.00
   4200.00    295.60      0.00     10.00      0.00
   4250.00    295.76      0.00     10.00      0.00
   4300.00    295.91      0.00     10.00      0.00
   4350.00    296.06      0.00     10.00      0.00
   4400.00    296.22      0.00     10.00      0.00
   4450.00    296.37      0.00     10.00      0.00
   4500.00    296.53      0.00     10.00      0.00
   4550.00    296.68      0.00     10.00      0.00
   4600.00    296.83      0.00     10.00      0.00
   4650.00    296.99      0.00     10.00      0.00
   4700.00    297.14      0.00     10.00      0.00
   4750.00    297.29      0.00     10.00      0.00
   4800.00    297.45      0.00     10.00      0.00
   4850.00    297.60      0.00     10.00      0.00
   4900.00    297.76      0.00     10.00      0.00
   4950.00    297.91      0.00     10.00      0.00
   5000.00    298.07      0.00     10.00      0.00
   5050.00    298.22      0.00     10.00      0.00
   5100.00    298.38      0.00     10.00      0.00
   5150.00    298.53      0.00     10.00      0.00
   5200.00    298.69      0.00     10.00      0.00
   5250.00    298.84      0.00     10.00      0.00
   5300.00    299.00      0.00     10.00      0.00
   5350.00    299.15      0.00     10.00      0.00
   5400.00    299.31      0.00     10.00      0.00
   5450.00    299.46      0.00     10.00      0.00
   5500.00    299.62      0.00     10.00      0.00
   5550.00    299.77      0.00     10.00      0.00
   5600.00    299.93      0.00     10.00      0.00
   5650.00    300.08      0.00     10.00      0.00
   5700.00    300.24      0.00     10.00      0.00
   5750.00    300.39      0.00     10.00      0.00
   5800.00    300.55      0.00     10.00      0.00
   5850.00    300.71      0.00     10.00      0.00
   5900.00    300.86      0.00     10.00      0.00
   5950.00    301.02      0.00     10.00      0.00
   6000.00    301.17      0.00     10.00      0.00
   6050.00    301.33      0.00     10.00      0.00
   6100.00    301.49      0.00     10.00      0.00
   6150.00    301.64      0.00     10.00      0.00
   6200.00    301.80      0.00     10.00      0.00
   6250.00    301.95      0.00     10.00      0.00
   6300.00    302.11      0.00     10.00      0.00
   6350.00    302.27      0.00     10.00      0.00
   6400.00    302.42      0.00     10.00      0.00
   6450.00    302.58      0.00     10.00      0.00
   6500.00    302.74      0.00     10.00      0.00
   6550.00    302.90      0.00     10.00      0.00
   6600.00    303.05      0.00     10.00      0.00
   6650.00    303.21      0.00     10.00      0.00
   6700.00    303.37      0.00     10.00      0.00
   6750.00    303.52      0.00     10.00      0.00
   6800.00    303.68      0.00     10.00      0.00
   6850.00    303.84      0.00     10.00      0.00
   6900.00    304.00      0.00     10.00      0.00
   6950.00    304.15      0.00     10.00      0.00
   7000.00    304.31      0.00     10.00      0.00
   7050.00    304.47      0.00     10.00      0.00
   7100.00    304.63      0.00     10.00      0.00
   7150.00    304.79      0.00     10.00      0.00
   7200.00    304.94      0.00     10.00      0.00
   7250.00    305.10      0.00     10.00      0.00
   7300.00    305.26      0.00     10.00      0.00
   7350.00    305.42      0.00     10.00      0.00
   7400.00    305.58      0.00     10.00      0.00
   7450.00    305.73      0.00     10.00      0.00
   7500.00    305.89      0.00     10.00      0.00
   7550.00    306.05      0.00     10.00      0.00
   7600.00    306.21      0.00     10.00      0.00
   7650.00    306.37      0.00     10.00      0.00
   7700.00    306.53      0.00     10.00      0.00
   7750.00    306.69      0.00     10.00      0.00
   7800.00    306.85      0.00     10.00      0.00
   7850.00    307.00      0.00     10.00      0.00
   7900.00    307.16      0.00     10.00      0.00
   7950.00    307.32      0.00     10.00      0.00
   8000.00    307.48      0.00     10.00      0.00
   8050.00    307.64      0.00     10.00      0.00
   8100.00    307.80      0.00     10.00      0.00
   8150.00    307.96      0.00     10.00      0.00
   8200.00    308.12      0.00     10.00      0.00
   8250.00    308.28      0.00     10.00      0.00
   8300.00    308.44      0.00     10.00      0.00
   8350.00    308.60      0.00     10.00      0.00
   8400.00    308.76      0.00     10.00      0.00
   8450.00    308.92      0.00     10.00      0.00
   8500.00    309.08      0.00     10.00      0.00
   8550.00    309.24      0.00     10.00      0.00
   8600.00    309.40      0.00     10.00      0.00
   8650.00    309.56      0.00     10.00      0.00
   8700.00    309.72      0.00     10.00      0.00
   8750.00    309.88      0.00     10.00      0.00
   8800.00    310.04      0.00     10.00      0.00
   8850.00    310.20      0.00     10.00      0.00
   8900.00    310.36      0.00     10.00      0.00
   8950.00    310.52      0.00     10.00      0.00
   9000.00    310.69      0.00     10.00      0.00
   9050.00    310.85      0.00     10.00      0.00
   9100.00    311.01      0.00     10.00      0.00
   9150.00    311.17      0.00     10.00      0.00
   9200.00    311.33      0.00     10.00      0.00
   9250.00    311.49      0.00     10.00      0.00
   9300.00    311.65      0.00     10.00      0.00
   9350.00    311.81      0.00     10.00      0.00
   9400.00    311.98      0.00     10.00      0.00
   9450.00    312.14      0.00     10.00      0.00
   9500.00    312.30      0.00     10.00      0.00
   9550.00    312.46      0.00     10.00      0.00
   9600.00    312.62      0.00     10.00      0.00
   9650.00    312.78      0.00     10.00      0.00
   9700.00    312.95      0.00     10.00      0.00
   9750.00    313.11      0.00     10.00      0.00
   9800.00    313.27      0.00     10.00      0.00
   9850.00    313.43      0.00     10.00      0.00
   9900.00    313.60      0.00     10.00      0.00
   9950.00    313.76      0.00     10.00      0.00
  10000.00    313.92      0.00     10.00      0.00
  10050.00    314.08      0.00     10.00      0.00
  10100.00    314.25      0.00     10.00      0.00
  10150.00    314.41      0.00     10.00      0.00
  10200.00    314.57      0.00     10.00      0.00
  10250.00    314.74      0.00     10.00      0.00
  10300.00    314.90      0.00     10.00      0.00
  10350.00    315.06      0.00     10.00      0.00
  10400.00    315.22      0.00     10.00      0.00
  10450.00    315.39      0.00     10.00      0.00
  10500.00    315.55      0.00     10.00      0.00
  10550.00    315.72      0.00     10.00      0.00
  10600.00    315.88      0.00     10.00      0.00
  10650.00    316.04      0.00     10.00      0.00
  10700.00    316.21      0.00     10.00      0.00
  10750.00    316.37      0.00     10.00      0.00
  10800.00    316.53      0.00     10.00      0.00
  10850.00    316.70      0.00     10.00      0.00
  10900.00    316.86      0.00     10.00      0.00
  10950.00    317.03      0.00     10.00      0.00
  11000.00    317.19      0.00     10.00      0.00
  11050.00    317.35      0.00     10.00      0.00
  11100.00    317.52      0.00     10.00      0.00
  11150.00    317.68      0.00     10.00      0.00
  11200.00    317.85      0.00     10.00      0.00
  11250.00    318.01      0.00     10.00      0.00
  11300.00    318.18      0.00     10.00      0.00
  11350.00    318.34      0.00     10.00      0.00
  11400.00    318.51      0.00     10.00      0.00
  11450.00    318.67      0.00     10.00      0.00
  11500.00    318.84      0.00     10.00      0.00
  11550.00    319.00      0.00     10.00      0.00
  11600.00    319.17      0.00     10.00      0.00
  11650.00    319.33      0.00     10.00      0.00
  11700.00    319.50      0.00     10.00      0.00
  11750.00    319.66      0.00     10.00      0.00
  11800.00    319.83      0.00     10.00      0.00
  11850.00    320.00      0.00     10.00      0.00
  11900.00    320.16      0.00     10.00      0.00
  11950.00    320.33      0.00     10.00      0.00
  12000.00    320.49      0.00     10.00      0.00
  12050.00    320.66      0.00     10.00      0.00
  12100.00    320.83      0.00     10.00      0.00
  12150.00    320.99      0.00     10.00      0.00
  12200.00    321.16      0.00     10.00      0.00
  12250.00    321.32      0.00     10.00      0.00
  12300.00    321.49      0.00     10.00      0.00
  12350.00    321.66      0.00     10.00      0.00
  12400.00    321.82      0.00     10.00      0.00
  12450.00    321.99      0.00     10.00      0.00
  12500.00    322.16      0.00     10.00      0.00
  12550.00    322.32      0.00     10.00      0.00
  12600.00    322.49      0.00     10.00      0.00
  12650.00    322.66      0.00     10.00      0.00
  12700.00    322.82      0.00     10.00      0.00
  12750.00    322.99      0.00     10.00      0.00
  12800.00    323.16      0.00     10.00      0.00
  12850.00    323.33      0.00     10.00      0.00
  12900.00    323.49      0.00     10.00      0.00
  12950.00    323.66      0.00     10.00      0.00
  13000.00    323.83      0.00     10.00      0.00
  13050.00    324.00      0.00     10.00      0.00
  13100.00    324.16      0.00     10.00      0.00
  13150.00    324.33      0.00     10.00      0.00
  13200.00    324.50      0.00     10.00      0.00
  13250.00    324.67      0.00     10.00      0.00
  13300.00    324.84      0.00     10.00      0.00
  13350.00    325.01      0.00     10.00      0.00
  13400.00    325.17      0.00     10.00      0.00
  13450.00    325.34      0.00     10.00      0.00
  13500.00    325.51      0.00     10.00      0.00
  13550.00    325.68      0.00     10.00      0.00
  13600.00    325.85      0.00     10.00      0.00
  13650.00    326.02      0.00     10.00      0.00
  13700.00    326.19      0.00     10.00      0.00
  13750.00    326.35      0.00     10.00      0.00
  13800.00    326.52      0.00     10.00      0.00
  13850.00    326.69      0.00     10.00      0.00
  13900.00    326.86      0.00     10.00      0.00
  13950.00    327.03      0.00     10.00      0.00
  14000.00    327.20      0.00     10.00      0.00
  14050.00    327.37      0.00     10.00      0.00
  14100.00    327.54      0.00     10.00      0.00
  14150.00    327.71      0.00     10.00      0.00
  14200.00    327.88      0.00     10.00      0.00
  14250.00    328.05      0.00     10.00      0.00
  14300.00    328.22      0.00     10.00      0.00
  14350.00    328.39      0.00     10.00      0.00
  14400.00    328.56      0.00     10.00      0.00
  14450.00    328.73      0.00     10.00      0.00
  14500.00    328.90      0.00     10.00      0.00
  14550.00    329.07      0.00     10.00      0.00
  14600.00    329.24      0.00     10.00      0.00
  14650.00    329.41      0.00     10.00      0.00
  14700.00    329.58      0.00     10.00      0.00
  14750.00    329.75      0.00     10.00      0.00
  14800.00    329.92      0.00     10.00      0.00
  14850.00    330.09      0.00     10.00      0.00
  14900.00    330.26      0.00     10.00      0.00
  14950.00    330.43      0.00     10.00      0.00
  15000.00    330.61      0.00     10.00      0.00
  15050.00    330.78      0.00     10.00      0.00
  15100.00    330.95      0.00     10.00      0.00
  15150.00    331.12      0.00     10.00      0.00
  15200.00    331.29      0.00     10.00      0.00
  15250.00    331.46      0.00     10.00      0.00
  15300.00    331.63      0.00     10.00      0.00
  15350.00    331.81      0.00     10.00      0.00
  15400.00    331.98      0.00     10.00      0.00
  15450.00    332.15      0.00     10.00      0.00
  15500.00    332.32      0.00     10.00      0.00
  15550.00    332.49      0.00     10.00      0.00
  15600.00    332.67      0.00     10.00      0.00
  15650.00    332.84      0.00     10.00      0.00
  15700.00    333.01      0.00     10.00      0.00
  15750.00    333.18      0.00     10.00      0.00
  15800.00    333.35      0.00     10.00      0.00
  15850.00    333.53      0.00     10.00      0.00
  15900.00    333.70      0.00     10.00      0.00
  15950.00    333.87      0.00     10.00      0.00
  16000.00    334.05      0.00     10.00      0.00
  16050.00    334.22      0.00     10.00      0.00
  16100.00    334.39      0.00     10.00      0.00
  16150.00    334.56      0.00     10.00      0.00
  16200.00    334.74      0.00     10.00      0.00
  16250.00    334.91      0.00     10.00      0.00
  16300.00    335.08      0.00     10.00      0.00
  16350.00    335.26      0.00     10.00      0.00
  16400.00    335.43      0.00     10.00      0.00
  16450.00    335.60      0.00     10.00      0.00
  16500.00    335.78      0.00     10.00      0.00
  16550.00    335.95      0.00     10.00      0.00
  16600.00    336.13      0.00     10.00      0.00
  16650.00    336.30      0.00     10.00      0.00
  16700.00    336.47      0.00     10.00      0.00
  16750.00    336.65      0.00     10.00      0.00
  16800.00    336.82      0.00     10.00      0.00
  16850.00    337.00      0.00     10.00      0.00
  16900.00    337.17      0.00     10.00      0.00
  16950.00    337.35      0.00     10.00      0.00
  17000.00    337.52      0.00     10.00      0.00
  17050.00    337.70      0.00     10.00      0.00
  17100.00    337.87      0.00     10.00      0.00
  17150.00    338.05      0.00     10.00      0.00
  17200.00    338.22      0.00     10.00      0.00
  17250.00    338.40      0.00     10.00      0.00
  17300.00    338.57      0.00     10.00      0.00
  17350.00    338.75      0.00     10.00      0.00
  17400.00    338.92      0.00     10.00      0.00
  17450.00    339.10      0.00     10.00      0.00
  17500.00    339.27      0.00     10.00      0.00
  17550.00    339.45      0.00     10.00      0.00
  17600.00    339.62      0.00     10.00      0.00
  17650.00    339.80      0.00     10.00      0.00
  17700.00    339.97      0.00     10.00      0.00
  17750.00    340.15      0.00     10.00      0.00
  17800.00    340.33      0.00     10.00      0.00
  17850.00    340.50      0.00     10.00      0.00
  17900.00    340.68      0.00     10.00      0.00
  17950.00    340.86      0.00     10.00      0.00
  18000.00    341.03      0.00     10.00      0.00
  18050.00    341.21      0.00     10.00      0.00
  18100.00    341.38      0.00     10.00      0.00
  18150.00    341.56      0.00     10.00      0.00
  18200.00    341.74      0.00     10.00      0.00
  18250.00    341.92      0.00     10.00      0.00
  18300.00    342.09      0.00     10.00      0.00
  18350.00    342.27      0.00     10.00      0.00
  18400.00    342.45      0.00     10.00      0.00
  18450.00    342.62      0.00     10.00      0.00
  18500.00    342.80      0.00     10.00      0.00
  18550.00    342.98      0.00     10.00      0.00
  18600.00    343.16      0.00     10.00      0.00
  18650.00    343.33      0.00     10.00      0.00
  18700.00    343.51      0.00     10.00      0.00
  18750.00    343.69      0.00     10.00      0.00
  18800.00    343.87      0.00     10.00      0.00
  18850.00    344.04      0.00     10.00      0.00
  18900.00    344.22      0.00     10.00      0.00
  18950.00    344.40      0.00     10.00      0.00
  19000.00    344.58      0.00     10.00      0.00
  19050.00    344.76      0.00     10.00      0.00
  19100.00    344.94      0.00     10.00      0.00
  19150.00    345.11      0.00     10.00      0.00
  19200.00    345.29      0.00     10.00      0.00
  19250.00    345.47      0.00     10.00      0.00
  19300.00    345.65      0.00     10.00      0.00
  19350.00    345.83      0.00     10.00      0.00
  19400.00    346.01      0.00     10.00      0.00
  19450.00    346.19      0.00     10.00      0.00
  19500.00    346.37      0.00     10.00      0.00
  19550.00    346.55      0.00     10.00      0.00
  19600.00    346.72      0.00     10.00      0.00
  19650.00    346.90      0.00     10.00      0.00
  19700.00    347.08      0.00     10.00      0.00
  19750.00    347.26      0.00     10.00      0.00
  19800.00    347.44      0.00     10.00      0.00
  19850.00    347.62      0.00     10.00      0.00
  19900.00    347.80      0.00     10.00      0.00
  19950.00    347.98      0.00     10.00      0.00
  20000.00    348.16      0.00     10.00      0.00
  20050.00    348.34      0.00     10.00      0.00
  20100.00    348.52      0.00     10.00      0.00
  20150.00    348.70      0.00     10.00      0.00
  20200.00    348.88      0.00     10.00      0.00
  20250.00    349.06      0.00     10.00      0.00
  20300.00    349.24      0.00     10.00      0.00
  20350.00    349.43      0.00     10.00      0.00
  20400.00    349.61      0.00     10.00      0.00
  20450.00    349.79      0.00     10.00      0.00
  20500.00    349.97      0.00     10.00      0.00
  20550.00    350.15      0.00     10.00      0.00
  20600.00    350.33      0.00     10.00      0.00
  20650.00    350.51      0.00     10.00      0.00
  20700.00    350.69      0.00     10.00      0.00
  20750.00    350.87      0.00     10.00      0.00
  20800.00    351.06      0.00     10.00      0.00
  20850.00    351.24      0.00     10.00      0.00
  20900.00    351.42      0.00     10.00      0.00
  20950.00    351.60      0.00     10.00      0.00
  21000.00    351.78      0.00     10.00      0.00
  21050.00    351.96      0.00     10.00      0.00
  21100.00    352.15      0.00     10.00      0.00
  21150.00    352.33      0.00     10.00      0.00
  21200.00    352.51      0.00     10.00      0.00
  21250.00    352.69      0.00     10.00      0.00
  21300.00    352.88      0.00     10.00      0.00
  21350.00    353.06      0.00     10.00      0.00
  21400.00    353.24      0.00     10.00      0.00
  21450.00    353.42      0.00     10.00      0.00
  21500.00    353.61      0.00     10.00      0.00
  21550.00    353.79      0.00     10.00      0.00
  21600.00    353.97      0.00     10.00      0.00
  21650.00    354.16      0.00     10.00      0.00
  21700.00    354.34      0.00     10.00      0.00
  21750.00    354.52      0.00     10.00      0.00
  21800.00    354.71      0.00     10.00      0.00
  21850.00    354.89      0.00     10.00      0.00
  21900.00    355.07      0.00     10.00      0.00
  21950.00    355.26      0.00     10.00      0.00
  22000.00    355.44      0.00     10.00      0.00
  22050.00    355.62      0.00     10.00      0.00
  22100.00    355.81      0.00     10.00      0.00
  22150.00    355.99      0.00     10.00      0.00
  22200.00    356.18      0.00     10.00      0.00
  22250.00    356.36      0.00     10.00      0.00
  22300.00    356.54      0.00     10.00      0.00
  22350.00    356.73      0.00     10.00      0.00
  22400.00    356.91      0.00     10.00      0.00
  22450.00    357.10      0.00     10.00      0.00
  22500.00    357.28      0.00     10.00      0.00
  22550.00    357.47      0.00     10.00      0.00
  22600.00    357.65      0.00     10.00      0.00
  22650.00    357.84      0.00     10.00      0.00
  22700.00    358.02      0.00     10.00      0.00
  22750.00    358.21      0.00     10.00      0.00
  22800.00    358.39      0.00     10.00      0.00
  22850.00    358.58      0.00     10.00      0.00
  22900.00    358.76      0.00     10.00      0.00
  22950.00    358.95      0.00     10.00      0.00
  23000.00    359.13      0.00     10.00      0.00
  23050.00    359.32      0.00     10.00      0.00
  23100.00    359.51      0.00     10.00      0.00
  23150.00    359.69      0.00     10.00      0.00
  23200.00    359.88      0.00     10.00      0.00
  23250.00    360.06      0.00     10.00      0.00
  23300.00    360.25      0.00     10.00      0.00
  23350.00    360.44      0.00     10.00      0.00
  23400.00    360.62      0.00     10.00      0.00
  23450.00    360.81      0.00     10.00      0.00
  23500.00    361.00      0.00     10.00      0.00
  23550.00    361.18      0.00     10.00      0.00
  23600.00    361.37      0.00     10.00      0.00
  23650.00    361.56      0.00     10.00      0.00
  23700.00    361.74      0.00     10.00      0.00
  23750.00    361.93      0.00     10.00      0.00
  23800.00    362.12      0.00     10.00      0.00
  23850.00    362.30      0.00     10.00      0.00
  23900.00    362.49      0.00     10.00      0.00
  23950.00    362.68      0.00     10.00      0.00
  24000.00    362.87      0.00     10.00      0.00
  24050.00    363.05      0.00     10.00      0.00
  24100.00    363.24      0.00     10.00      0.00
  24150.00    363.43      0.00     10.00      0.00
  24200.00    363.62      0.00     10.00      0.00
  24250.00    363.81      0.00     10.00      0.00
  24300.00    363.99      0.00     10.00      0.00
  24350.00    364.18      0.00     10.00      0.00
  24400.00    364.37      0.00     10.00      0.00
  24450.00    364.56      0.00     10.00      0.00
  24500.00    364.75      0.00     10.00      0.00
  24550.00    364.94      0.00     10.00      0.00
  24600.00    365.12      0.00     10.00      0.00
  24650.00    365.31      0.00     10.00      0.00
  24700.00    365.50      0.00     10.00      0.00
  24750.00    365.69      0.00     10.00      0.00
  24800.00    365.88      0.00     10.00      0.00
  24850.00    366.07      0.00     10.00      0.00
  24900.00    366.26      0.00     10.00      0.00
  24950.00    366.45      0.00     10.00      0.00
  25000.00    366.64      0.00     10.00      0.00
  25050.00    366.83      0.00     10.00      0.00
  25100.00    367.02      0.00     10.00      0.00
  25150.00    367.21      0.00     10.00      0.00
  25200.00    367.40      0.00     10.00      0.00
  25250.00    367.59      0.00     10.00      0.00
  25300.00    367.78      0.00     10.00      0.00
  25350.00    367.97      0.00     10.00      0.00
  25400.00    368.16      0.00     10.00      0.00
  25450.00    368.35      0.00     10.00      0.00
  25500.00    368.54      0.00     10.00      0.00
  25550.00    368.73      0.00     10.00      0.00
  25600.00    368.92      0.00     10.00      0.00
  25650.00    369.11      0.00     10.00      0.00
  25700.00    369.30      0.00     10.00      0.00
  25750.00    369.49      0.00     10.00      0.00
  25800.00    369.68      0.00     10.00      0.00
  25850.00    369.87      0.00     10.00      0.00
  25900.00    370.06      0.00     10.00      0.00
  25950.00    370.26      0.00     10.00      0.00
  26000.00    370.45      0.00     10.00      0.00
  26050.00    370.64      0.00     10.00      0.00
  26100.00    370.83      0.00     10.00      0.00
  26150.00    371.02      0.00     10.00      0.00
  26200.00    371.21      0.00     10.00      0.00
  26250.00    371.41      0.00     10.00      0.00
  26300.00    371.60      0.00     10.00      0.00
  26350.00    371.79      0.00     10.00      0.00
  26400.00    371.98      0.00     10.00      0.00
  26450.00    372.17      0.00     10.00      0.00
  26500.00    372.37      0.00     10.00      0.00
  26550.00    372.56      0.00     10.00      0.00
  26600.00    372.75      0.00     10.00      0.00
  26650.00    372.94      0.00     10.00      0.00
  26700.00    373.14      0.00     10.00      0.00
  26750.00    373.33      0.00     10.00      0.00
  26800.00    373.52      0.00     10.00      0.00
  26850.00    373.72      0.00     10.00      0.00
  26900.00    373.91      0.00     10.00      0.00
  26950.00    374.10      0.00     10.00      0.00
  27000.00    374.30      0.00     10.00      0.00
  27050.00    374.49      0.00     10.00      0.00
  27100.00    374.68      0.00     10.00      0.00
  27150.00    374.88      0.00     10.00      0.00
  27200.00    375.07      0.00     10.00      0.00
  27250.00    375.26      0.00     10.00      0.00
  27300.00    375.46      0.00     10.00      0.00
  27350.00    375.65      0.00     10.00      0.00
  27400.00    375.85      0.00     10.00      0.00
  27450.00    376.04      0.00     10.00      0.00
  27500.00    376.23      0.00     10.00      0.00
  27550.00    376.43      0.00     10.00      0.00
  27600.00    376.62      0.00     10.00      0.00
  27650.00    376.82      0.00     10.00      0.00
  27700.00    377.01      0.00     10.00      0.00
  27750.00    377.21      0.00     10.00      0.00
  27800.00    377.40      0.00     10.00      0.00
  27850.00    377.60      0.00     10.00      0.00
  27900.00    377.79      0.00     10.00      0.00
  27950.00    377.99      0.00     10.00      0.00
  28000.00    378.18      0.00     10.00      0.00
  28050.00    378.38      0.00     10.00      0.00
  28100.00    378.57      0.00     10.00      0.00
  28150.00    378.77      0.00     10.00      0.00
  28200.00    378.97      0.00     10.00      0.00
  28250.00    379.16      0.00     10.00      0.00
  28300.00    379.36      0.00     10.00      0.00
  28350.00    379.55      0.00     10.00      0.00
  28400.00    379.75      0.00     10.00      0.00
  28450.00    379.95      0.00     10.00      0.00
  28500.00    380.14      0.00     10.00      0.00
  28550.00    380.34      0.00     10.00      0.00
  28600.00    380.54      0.00     10.00      0.00
  28650.00    380.73      0.00     10.00      0.00
  28700.00    380.93      0.00     10.00      0.00
  28750.00    381.13      0.00     10.00      0.00
  28800.00    381.32      0.00     10.00      0.00
  28850.00    381.52      0.00     10.00      0.00
  28900.00    381.72      0.00     10.00      0.00
  28950.00    381.91      0.00     10.00      0.00
  29000.00    382.11      0.00     10.00      0.00
  29050.00    382.31      0.00     10.00      0.00
  29100.00    382.51      0.00     10.00      0.00
  29150.00    382.70      0.00     10.00      0.00
  29200.00    382.90      0.00     10.00      0.00
  29250.00    383.10      0.00     10.00      0.00
  29300.00    383.30      0.00     10.00      0.00