   1000.00    295.00     13.38
      0.00    295.00     13.38    -12.00      0.00
     50.00    295.29     13.29    -12.00      0.00
    100.00    295.57     13.20    -12.00      0.00
    150.00    295.86     13.11    -12.00      0.00
    200.00    296.14     13.02    -12.00      0.00
    250.00    296.43     12.93    -12.00      0.00
    300.00    296.71     12.84    -12.00      0.00
    350.00    297.00     12.75    -12.00      0.00
    400.00    297.28     12.66    -12.00      0.00
    450.00    297.57     12.57    -12.00      0.00
    500.00    297.85     12.48    -12.00      0.00
    550.00    298.14     12.39    -12.00      0.00
    600.00    298.42     12.30    -12.00      0.00
    650.00    298.71     12.21    -12.00      0.00
    700.00    299.00     12.12    -12.00      0.00
    750.00    299.28     12.03    -12.00      0.00
    800.00    299.57     11.94    -12.00      0.00
    850.00    299.85     11.85    -12.00      0.00
    900.00    300.14     11.76    -12.00      0.00
    950.00    300.43     11.68    -12.00      0.00
   1000.00    300.71     11.59    -12.00      0.00
   1050.00    301.00     11.50    -12.00      0.00
   1100.00    301.28     11.41    -12.00      0.00
   1150.00    301.57     11.32    -12.00      0.00
   1200.00    301.85     11.23    -12.00      0.00
   1250.00    302.14     11.15    -12.00      0.00
   1300.00    302.43     11.06    -12.00      0.00
   1350.00    302.71     10.97    -12.00      0.00
   1400.00    303.00     10.88    -12.00      0.00
   1450.00    303.28     10.80    -12.00      0.00
   1500.00    303.57     10.71    -12.00      0.00
   1550.00    303.85     10.62    -12.00      0.00
   1600.00    304.14     10.54    -12.00      0.00
   1650.00    304.42     10.45    -12.00      0.00
   1700.00    304.71     10.36    -12.00      0.00
   1750.00    304.99     10.28    -12.00      0.00
   1800.00    305.28     10.19    -12.00      0.00
   1850.00    305.56     10.10    -12.00      0.00
   1900.00    305.85     10.02    -12.00      0.00
   1950.00    306.13      9.93    -12.00      0.00
   2000.00    306.42      9.85    -12.00      0.00
   2050.00    306.70      9.76    -12.00      0.00
   2100.00    306.99      9.68    -12.00      0.00
   2150.00    307.27      9.59    -12.00      0.00
   2200.00    307.56      9.51    -12.00      0.00
   2250.00    307.84      9.42    -12.00      0.00
   2300.00    308.12      9.34    -12.00      0.00
   2350.00    308.41      9.25    -12.00      0.00
   2400.00    308.69      9.17    -12.00      0.00
   2450.00    308.97      9.09    -12.00      0.00
   2500.00    309.25      9.00    -12.00      0.00
   2550.00    309.54      8.92    -12.00      0.00
   2600.00    309.82      8.83    -12.00      0.00
   2650.00    310.10      8.75    -12.00      0.00
   2700.00    310.38      8.67    -12.00      0.00
   2750.00    310.67      8.59    -12.00      0.00
   2800.00    310.95      8.50    -12.00      0.00
   2850.00    311.23      8.42    -12.00      0.00
   2900.00    311.51      8.34    -12.00      0.00
   2950.00    311.79      8.26    -12.00      0.00
   3000.00    312.07      8.18    -12.00      0.00
   3050.00    312.35      8.09    -12.00      0.00
   3100.00    312.63      8.01    -12.00      0.00
   3150.00    312.91      7.93    -12.00      0.00
   3200.00    313.19      7.85    -12.00      0.00
   3250.00    313.47      7.77    -12.00      0.00
   3300.00    313.74      7.69    -12.00      0.00
   3350.00    314.02      7.61    -12.00      0.00
   3400.00    314.30      7.53    -12.00      0.00
   3450.00    314.58      7.45    -12.00      0.00
   3500.00    314.85      7.37    -12.00      0.00
   3550.00    315.13      7.29    -12.00      0.00
   3600.00    315.40      7.21    -12.00      0.00
   3650.00    315.68      7.13    -12.00      0.00
   3700.00    315.95      7.06    -12.00      0.00
   3750.00    316.23      6.98    -12.00      0.00
   3800.00    316.50      6.90    -12.00      0.00
   3850.00    316.78      6.82    -12.00      0.00
   3900.00    317.05      6.75    -12.00      0.00
   3950.00    317.32      6.67    -12.00      0.00
   4000.00    317.59      6.59    -12.00      0.00
   4050.00    317.86      6.52    -12.00      0.00
   4100.00    318.13      6.44    -12.00      0.00
   4150.00    318.40      6.36    -12.00      0.00
   4200.00    318.67      6.29    -12.00      0.00
   4250.00    318.94      6.21    -12.00      0.00
   4300.00    319.21      6.14    -12.00      0.00
   4350.00    319.48      6.06    -12.00      0.00
   4400.00    319.75      5.99    -12.00      0.00
   4450.00    320.01      5.91    -12.00      0.00
   4500.00    320.28      5.84    -12.00      0.00
   4550.00    320.54      5.77    -12.00      0.00
   4600.00    320.81      5.69    -12.00      0.00
   4650.00    321.07      5.62    -12.00      0.00
   4700.00    321.33      5.55    -12.00      0.00
   4750.00    321.59      5.48    -12.00      0.00
   4800.00    321.85      5.40    -12.00      0.00
   4850.00    322.11      5.33    -12.00      0.00
   4900.00    322.37      5.26    -12.00      0.00
   4950.00    322.63      5.19    -12.00      0.00
   5000.00    322.89      5.12    -12.00      0.00
   5050.00    323.15      5.05    -12.00      0.00
   5100.00    323.40      4.98    -12.00      0.00
   5150.00    323.66      4.91    -12.00      0.00
   5200.00    323.91      4.84    -12.00      0.00
   5250.00    324.17      4.77    -12.00      0.00
   5300.00    324.42      4.70    -12.00      0.00
   5350.00    324.67      4.64    -12.00      0.00
   5400.00    324.92      4.57    -12.00      0.00
   5450.00    325.17      4.50    -12.00      0.00
   5500.00    325.42      4.43    -12.00      0.00
   5550.00    325.66      4.37    -12.00      0.00
   5600.00    325.91      4.30    -12.00      0.00
   5650.00    326.15      4.24    -12.00      0.00
   5700.00    326.40      4.17    -12.00      0.00
   5750.00    326.64      4.11    -12.00      0.00
   5800.00    326.88      4.04    -12.00      0.00
   5850.00    327.12      3.98    -12.00      0.00
   5900.00    327.36      3.91    -12.00      0.00
   5950.00    327.60      3.85    -12.00      0.00
   6000.00    327.83      3.79    -12.00      0.00
   6050.00    328.07      3.73    -12.00      0.00
   6100.00    328.30      3.66    -12.00      0.00
   6150.00    328.53      3.60    -12.00      0.00
   6200.00    328.77      3.54    -12.00      0.00
   6250.00    329.00      3.48    -12.00      0.00
   6300.00    329.22      3.42    -12.00      0.00
   6350.00    329.45      3.36    -12.00      0.00
   6400.00    329.68      3.30    -12.00      0.00
   6450.00    329.90      3.24    -12.00      0.00
   6500.00    330.12      3.19    -12.00      0.00
   6550.00    330.34      3.13    -12.00      0.00
   6600.00    330.56      3.07    -12.00      0.00
   6650.00    330.78      3.01    -12.00      0.00
   6700.00    331.00      2.96    -12.00      0.00
   6750.00    331.21      2.90    -12.00      0.00
   6800.00    331.43      2.85    -12.00      0.00
   6850.00    331.64      2.79    -12.00      0.00
   6900.00    331.85      2.74    -12.00      0.00
   6950.00    332.06      2.68    -12.00      0.00
   7000.00    332.26      2.63    -12.00      0.00
   7050.00    332.47      2.58    -12.00      0.00
   7100.00    332.67      2.53    -12.00      0.00
   7150.00    332.87      2.48    -12.00      0.00
   7200.00    333.07      2.43    -12.00      0.00
   7250.00    333.27      2.37    -12.00      0.00
   7300.00    333.46      2.32    -12.00      0.00
   7350.00    333.66      2.28    -12.00      0.00
   7400.00    333.85      2.23    -12.00      0.00
   7450.00    334.04      2.18    -12.00      0.00
   7500.00    334.23      2.13    -12.00      0.00
   7550.00    334.41      2.08    -12.00      0.00
   7600.00    334.60      2.04    -12.00      0.00
   7650.00    334.78      1.99    -12.00      0.00
   7700.00    334.96      1.95    -12.00      0.00
   7750.00    335.14      1.90    -12.00      0.00
   7800.00    335.31      1.86    -12.00      0.00
   7850.00    335.49      1.81    -12.00      0.00
   7900.00    335.66      1.77    -12.00      0.00
   7950.00    335.83      1.73    -12.00      0.00
   8000.00    336.00      1.69    -12.00      0.00
   8050.00    336.16      1.65    -12.00      0.00
   8100.00    336.32      1.61    -12.00      0.00
   8150.00    336.49      1.57    -12.00      0.00
   8200.00    336.65      1.53    -12.00      0.00
   8250.00    336.80      1.49    -12.00      0.00
   8300.00    336.96      1.45    -12.00      0.00
   8350.00    337.11      1.41    -12.00      0.00
   8400.00    337.26      1.38    -12.00      0.00
   8450.00    337.41      1.34    -12.00      0.00
   8500.00    337.55      1.30    -12.00      0.00
   8550.00    337.70      1.27    -12.00      0.00
   8600.00    337.84      1.23    -12.00      0.00
   8650.00    337.98      1.20    -12.00      0.00
   8700.00    338.11      1.17    -12.00      0.00
   8750.00    338.25      1.13    -12.00      0.00
   8800.00    338.38      1.10    -12.00      0.00
   8850.00    338.51      1.07    -12.00      0.00
   8900.00    338.64      1.04    -12.00      0.00
   8950.00    338.76      1.01    -12.00      0.00
   9000.00    338.88      0.98    -12.00      0.00
   9050.00    339.01      0.95    -12.00      0.00
   9100.00    339.12      0.92    -12.00      0.00
   9150.00    339.24      0.89    -12.00      0.00
   9200.00    339.35      0.87    -12.00      0.00
   9250.00    339.47      0.84    -12.00      0.00
   9300.00    339.58      0.81    -12.00      0.00
   9350.00    339.68      0.79    -12.00      0.00
   9400.00    339.79      0.76    -12.00      0.00
   9450.00    339.89      0.74    -12.00      0.00
   9500.00    339.99      0.71    -12.00      0.00
   9550.00    340.09      0.69    -12.00      0.00
   9600.00    340.18      0.67    -12.00      0.00
   9650.00    340.28      0.65    -12.00      0.00
   9700.00    340.37      0.62    -12.00      0.00
   9750.00    340.46      0.60    -12.00      0.00
   9800.00    340.55      0.58    -12.00      0.00
   9850.00    340.63      0.56    -12.00      0.00
   9900.00    340.72      0.54    -12.00      0.00
   9950.00    340.80      0.52    -12.00      0.00
  10000.00    340.88      0.51    -12.00      0.00
  10050.00    340.95      0.49    -12.00      0.00
  10100.00    341.03      0.47    -12.00      0.00
  10150.00    341.10      0.45    -12.00      0.00
  10200.00    341.17      0.44    -12.00      0.00
  10250.00    341.24      0.42    -12.00      0.00
  10300.00    341.31      0.40    -12.00      0.00
  10350.00    341.38      0.39    -12.00      0.00
  10400.00    341.44      0.37    -12.00      0.00
  10450.00    341.50      0.36    -12.00      0.00
  10500.00    341.56      0.35    -12.00      0.00
  10550.00    341.62      0.33    -12.00      0.00
  10600.00    341.68      0.32    -12.00      0.00
  10650.00    341.73      0.31    -12.00      0.00
  10700.00    341.78      0.30    -12.00      0.00
  10750.00    341.84      0.28    -12.00      0.00
  10800.00    341.89      0.27    -12.00      0.00
  10850.00    341.93      0.26    -12.00      0.00
  10900.00    341.98      0.25    -12.00      0.00
  10950.00    342.03      0.24    -12.00      0.00
  11000.00    342.07      0.23    -12.00      0.00
  11050.00    342.11      0.22    -12.00      0.00
  11100.00    342.15      0.21    -12.00      0.00
  11150.00    342.19      0.20    -12.00      0.00
  11200.00    342.23      0.19    -12.00      0.00
  11250.00    342.27      0.19    -12.00      0.00
  11300.00    342.30      0.18    -12.00      0.00
  11350.00    342.34      0.17    -12.00      0.00
  11400.00    342.37      0.16    -12.00      0.00
  11450.00    342.40      0.15    -12.00      0.00
  11500.00    342.44      0.15    -12.00      0.00
  11550.00    342.47      0.14    -12.00      0.00
  11600.00    342.49      0.13    -12.00      0.00
  11650.00    342.52      0.13    -12.00      0.00
  11700.00    342.55      0.12    -12.00      0.00
  11750.00    342.57      0.12    -12.00      0.00
  11800.00    342.60      0.11    -12.00      0.00
  11850.00    342.62      0.11    -12.00      0.00
  11900.00    342.64      0.10    -12.00      0.00
  11950.00    342.67      0.10    -12.00      0.00
  12000.00    342.69      0.09    -12.00      0.00
  12050.00    342.71      0.09    -12.00      0.00
  12100.00    342.73      0.08    -12.00      0.00
  12150.00    342.75      0.08    -12.00      0.00
  12200.00    342.76      0.08    -12.00      0.00
  12250.00    342.78      0.07    -12.00      0.00
  12300.00    342.80      0.07    -12.00      0.00
  12350.00    342.81      0.06    -12.00      0.00
  12400.00    342.83      0.06    -12.00      0.00
  12450.00    342.84      0.06    -12.00      0.00
  12500.00    342.86      0.06    -12.00      0.00
  12550.00    342.87      0.05    -12.00      0.00
  12600.00    342.88      0.05    -12.00      0.00
  12650.00    342.89      0.05    -12.00      0.00
  12700.00    342.90      0.04    -12.00      0.00
  12750.00    342.91      0.04    -12.00      0.00
  12800.00    342.93      0.04    -12.00      0.00
  12850.00    342.94      0.04    -12.00      0.00
  12900.00    342.94      0.04    -12.00      0.00
  12950.00    342.95      0.03    -12.00      0.00
  13000.00    342.96      0.03    -12.00      0.00
  13050.00    342.97      0.03    -12.00      0.00
  13100.00    342.98      0.03    -12.00      0.00
  13150.00    342.99      0.03    -12.00      0.00
  13200.00    342.99      0.03    -12.00      0.00
  13250.00    343.00      0.02    -12.00      0.00
  13300.00    343.01      0.02    -12.00      0.00
  13350.00    343.01      0.02    -12.00      0.00
  13400.00    343.02      0.02    -12.00      0.00
  13450.00    343.02      0.02    -12.00      0.00
  13500.00    343.03      0.02    -12.00      0.00
  13550.00    343.03      0.02    -12.00      0.00
  13600.00    343.04      0.02    -12.00      0.00
  13650.00    343.04      0.01    -12.00      0.00
  13700.00    343.05      0.01    -12.00      0.00
  13750.00    343.05      0.01    -12.00      0.00
  13800.00    343.06      0.01    -12.00      0.00
  13850.00    343.06      0.01    -12.00      0.00
  13900.00    343.06      0.01    -12.00      0.00
  13950.00    343.07      0.01    -12.00      0.00
  14000.00    343.07      0.01    -12.00      0.00
  14050.00    343.07      0.01    -12.00      0.00
  14100.00    343.07      0.01    -12.00      0.00
  14150.00    343.08      0.01    -12.00      0.00
  14200.00    343.08      0.01    -12.00      0.00
  14250.00    343.08      0.01    -12.00      0.00
  14300.00    343.08      0.01    -12.00      0.00
  14350.00    343.09      0.01    -12.00      0.00
  14400.00    343.09      0.01    -12.00      0.00
  14450.00    343.09      0.01    -12.00      0.00
  14500.00    343.09      0.00    -12.00      0.00
  14550.00    343.09      0.00    -12.00      0.00
  14600.00    343.09      0.00    -12.00      0.00
  14650.00    343.10      0.00    -12.00      0.00
  14700.00    343.10      0.00    -12.00      0.00
  14750.00    343.10      0.00    -12.00      0.00
  14800.00    343.10      0.00    -12.00      0.00
  14850.00    343.10      0.00    -12.00      0.00
  14900.00    343.10      0.00    -12.00      0.00
  14950.00    343.10      0.00    -12.00      0.00
  15000.00    343.10      0.00    -12.00      0.00
  15050.00    343.10      0.00    -12.00      0.00
  15100.00    343.11      0.00    -12.00      0.00
  15150.00    343.11      0.00    -12.00      0.00
  15200.00    343.11      0.00    -12.00      0.00
  15250.00    343.11      0.00    -12.00      0.00
  15300.00    343.11      0.00    -12.00      0.00
  15350.00    343.11      0.00    -12.00      0.00
  15400.00    343.11      0.00    -12.00      0.00
  15450.00    343.30      0.00    -12.00      0.00
  15500.00    344.20      0.00    -12.00      0.00
  15550.00    345.11      0.00    -12.00      0.00
  15600.00    346.01      0.00    -12.00      0.00
  15650.00    346.93      0.00    -12.00      0.00
  15700.00    347.84      0.00    -12.00      0.00
  15750.00    348.75      0.00    -12.00      0.00
  15800.00    349.67      0.00    -12.00      0.00
  15850.00    350.59      0.00    -12.00      0.00
  15900.00    351.52      0.00    -12.00      0.00
  15950.00    352.44      0.00    -12.00      0.00
  16000.00    353.37      0.00    -12.00      0.00
  16050.00    354.30      0.00    -12.00      0.00
  16100.00    355.23      0.00    -12.00      0.00
  16150.00    356.17      0.00    -12.00      0.00
  16200.00    357.11      0.00    -12.00      0.00
  16250.00    358.05      0.00    -12.00      0.00
  16300.00    358.99      0.00    -12.00      0.00
  16350.00    359.93      0.00    -12.00      0.00
  16400.00    360.88      0.00    -12.00      0.00
  16450.00    361.83      0.00    -12.00      0.00
  16500.00    362.78      0.00    -12.00      0.00
  16550.00    363.74      0.00    -12.00      0.00
  16600.00    364.70      0.00    -12.00      0.00
  16650.00    365.66      0.00    -12.00      0.00
  16700.00    366.62      0.00    -12.00      0.00
  16750.00    367.59      0.00    -12.00      0.00
  16800.00    368.55      0.00    -12.00      0.00
  16850.00    369.73      0.00    -12.00      0.00
  16900.00    370.99      0.00    -12.00      0.00
  16950.00    372.26      0.00    -12.00      0.00
  17000.00    373.52      0.00    -12.00      0.00
  17050.00    374.80      0.00    -12.00      0.00
  17100.00    376.07      0.00    -12.00      0.00
  17150.00    377.35      0.00    -12.00      0.00
  17200.00    378.63      0.00    -12.00      0.00
  17250.00    379.92      0.00    -12.00      0.00
  17300.00    381.20      0.00    -12.00      0.00
  17350.00    382.49      0.00    -12.00      0.00
  17400.00    383.79      0.00    -12.00      0.00
  17450.00    385.08      0.00    -12.00      0.00
  17500.00    386.38      0.00    -12.00      0.00
  17550.00    387.69      0.00    -12.00      0.00
  17600.00    388.99      0.00    -12.00      0.00
  17650.00    390.30      0.00    -12.00      0.00
  17700.00    391.62      0.00    -12.00      0.00
  17750.00    392.93      0.00    -12.00      0.00
  17800.00    394.25      0.00    -12.00      0.00
  17850.00    395.57      0.00    -12.00      0.00
  17900.00    396.90      0.00    -12.00      0.00
  17950.00    398.23      0.00    -12.00      0.00
  18000.00    399.56      0.00    -12.00      0.00
  18050.00    400.90      0.00    -12.00      0.00
  18100.00    402.23      0.00    -12.00      0.00
  18150.00    403.58      0.00    -12.00      0.00
  18200.00    404.92      0.00    -12.00      0.00
  18250.00    406.27      0.00    -12.00      0.00
  18300.00    407.62      0.00    -12.00      0.00
  18350.00    408.97      0.00    -12.00      0.00
  18400.00    410.33      0.00    -12.00      0.00
  18450.00    411.69      0.00    -12.00      0.00
  18500.00    413.06      0.00    -12.00      0.00
  18550.00    414.43      0.00    -12.00      0.00
  18600.00    415.80      0.00    -12.00      0.00
  18650.00    417.17      0.00    -12.00      0.00
  18700.00    418.55      0.00    -12.00      0.00
  18750.00    419.93      0.00    -12.00      0.00
  18800.00    421.31      0.00    -12.00      0.00
  18850.00    422.70      0.00    -12.00      0.00
  18900.00    424.09      0.00    -12.00      0.00
  18950.00    425.48      0.00    -12.00      0.00
  19000.00    426.88      0.00    -12.00      0.00
  19050.00    428.28      0.00    -12.00      0.00
  19100.00    429.69      0.00    -12.00      0.00
  19150.00    431.09      0.00    -12.00      0.00
  19200.00    432.51      0.00    -12.00      0.00
  19250.00    433.92      0.00    -12.00      0.00
  19300.00    435.34      0.00    -12.00      0.00
  19350.00    436.76      0.00    -12.00      0.00
  19400.00    438.18      0.00    -12.00      0.00
  19450.00    439.61      0.00    -12.00      0.00
  19500.00    441.04      0.00    -12.00      0.00
  19550.00    442.47      0.00    -12.00      0.00
  19600.00    443.91      0.00    -12.00      0.00
  19650.00    445.35      0.00    -12.00      0.00
  19700.00    446.80      0.00    -12.00      0.00
  19750.00    448.25      0.00    -12.00      0.00
  19800.00    449.70      0.00    -12.00      0.00
  19850.00    451.15      0.00    -12.00      0.00
  19900.00    452.61      0.00    -12.00      0.00
  19950.00    454.07      0.00    -12.00      0.00
  20000.00    455.54      0.00    -12.00      0.00
  20050.00    457.00      0.00    -12.00      0.00
  20100.00    458.48      0.00    -12.00      0.00
  20150.00    459.95      0.00    -12.00      0.00
  20200.00    461.43      0.00    -12.00      0.00
  20250.00    462.91      0.00    -12.00      0.00
  20300.00    464.40      0.00    -12.00      0.00
  20350.00    465.89      0.00    -12.00      0.00
  20400.00    467.38      0.00    -12.00      0.00
  20450.00    468.88      0.00    -12.00      0.00
  20500.00    470.38      0.00    -12.00      0.00
  20550.00    471.88      0.00    -12.00      0.00
  20600.00    473.39      0.00    -12.00      0.00
  20650.00    474.90      0.00    -12.00      0.00
  20700.00    476.41      0.00    -12.00      0.00
  20750.00    477.93      0.00    -12.00      0.00
  20800.00    479.45      0.00    -12.00      0.00
  20850.00    480.97      0.00    -12.00      0.00
  20900.00    482.50      0.00    -12.00      0.00
  20950.00    484.03      0.00    -12.00      0.00
  21000.00    485.57      0.00    -12.00      0.00
  21050.00    487.11      0.00    -12.00      0.00
  21100.00    488.65      0.00    -12.00      0.00
  21150.00    490.20      0.00    -12.00      0.00
  21200.00    491.74      0.00    -12.00      0.00
  21250.00    493.30      0.00    -12.00      0.00
  21300.00    494.85      0.00    -12.00      0.00
  21350.00    496.41      0.00    -12.00      0.00
  21400.00    497.98      0.00    -12.00      0.00
  21450.00    499.55      0.00    -12.00      0.00
  21500.00    501.12      0.00    -12.00      0.00
  21550.00    502.69      0.00    -12.00      0.00
  21600.00    504.27      0.00    -12.00      0.00
  21650.00    505.85      0.00    -12.00      0.00
  21700.00    507.44      0.00    -12.00      0.00
  21750.00    509.03      0.00    -12.00      0.00
  21800.00    510.62      0.00    -12.00      0.00
  21850.00    512.22      0.00    -12.00      0.00
  21900.00    513.82      0.00    -12.00      0.00
  21950.00    515.42      0.00    -12.00      0.00
  22000.00    517.03      0.00    -12.00      0.00
  22050.00    518.64      0.00    -12.00      0.00
  22100.00    520.25      0.00    -12.00      0.00
  22150.00    521.87      0.00    -12.00      0.00
  22200.00    523.49      0.00    -12.00      0.00
  22250.00    525.12      0.00    -12.00      0.00
  22300.00    526.75      0.00    -12.00      0.00
  22350.00    528.38      0.00    -12.00      0.00
  22400.00    530.02      0.00    -12.00      0.00
  22450.00    531.66      0.00    -12.00      0.00
  22500.00    533.31      0.00    -12.00      0.00
  22550.00    534.96      0.00    -12.00      0.00
  22600.00    536.61      0.00    -12.00      0.00
  22650.00    538.26      0.00    -12.00      0.00
  22700.00    539.92      0.00    -12.00      0.00
  22750.00    541.59      0.00    -12.00      0.00
  22800.00    543.26      0.00    -12.00      0.00
  22850.00    544.93      0.00    -12.00      0.00
  22900.00    546.60      0.00    -12.00      0.00
  22950.00    548.28      0.00    -12.00      0.00
  23000.00    549.96      0.00    -12.00      0.00
  23050.00    551.65      0.00    -12.00      0.00
  23100.00    553.34      0.00    -12.00      0.00
  23150.00    555.03      0.00    -12.00      0.00
  23200.00    556.73      0.00    -12.00      0.00
  23250.00    558.43      0.00    -12.00      0.00
  23300.00    560.14      0.00    -12.00      0.00
  23350.00    561.85      0.00    -12.00      0.00
  23400.00    563.56      0.00    -12.00      0.00
  23450.00    565.28      0.00    -12.00      0.00
  23500.00    567.00      0.00    -12.00      0.00
  23550.00    568.72      0.00    -12.00      0.00
  23600.00    570.45      0.00    -12.00      0.00
  23650.00    572.19      0.00    -12.00      0.00
  23700.00    573.92      0.00    -12.00      0.00
  23750.00    575.66      0.00    -12.00      0.00
  23800.00    577.41      0.00    -12.00      0.00
  23850.00    579.16      0.00    -12.00      0.00
  23900.00    580.91      0.00    -12.00      0.00
  23950.00    582.66      0.00    -12.00      0.00
  24000.00    584.42      0.00    -12.00      0.00
  24050.00    586.19      0.00    -12.00      0.00
  24100.00    587.96      0.00    -12.00      0.00
  24150.00    589.73      0.00    -12.00      0.00
  24200.00    591.50      0.00    -12.00      0.00
  24250.00    593.28      0.00    -12.00      0.00
  24300.00    595.07      0.00    -12.00      0.00
  24350.00    596.86      0.00    -12.00      0.00
  24400.00    598.65      0.00    -12.00      0.00
  24450.00    600.44      0.00    -12.00      0.00
  24500.00    602.24      0.00    -12.00      0.00
  24550.00    604.05      0.00    -12.00      0.00
  24600.00    605.86      0.00    -12.00      0.00
  24650.00    607.67      0.00    -12.00      0.00
  24700.00    609.48      0.00    -12.00      0.00
  24750.00    611.30      0.00    -12.00      0.00
  24800.00    613.13      0.00    -12.00      0.00
  24850.00    614.96      0.00    -12.00      0.00
  24900.00    616.79      0.00    -12.00      0.00
  24950.00    618.62      0.00    -12.00      0.00
  25000.00    620.47      0.00    -12.00      0.00
  25050.00    622.31      0.00    -12.00      0.00
  25100.00    624.16      0.00    -12.00      0.00
  25150.00    626.01      0.00    -12.00      0.00
  25200.00    627.87      0.00    -12.00      0.00
  25250.00    629.73      0.00    -12.00      0.00
  25300.00    631.59      0.00    -12.00      0.00
  25350.00    633.46      0.00    -12.00      0.00
  25400.00    635.34      0.00    -12.00      0.00
  25450.00    637.21      0.00    -12.00      0.00
  25500.00    639.09      0.00    -12.00      0.00
  25550.00    640.98      0.00    -12.00      0.00
  25600.00    642.87      0.00    -12.00      0.00
  25650.00    644.76      0.00    -12.00      0.00
  25700.00    646.66      0.00    -12.00      0.00
  25750.00    648.56      0.00    -12.00      0.00
  25800.00    650.47      0.00    -12.00      0.00
  25850.00    652.38      0.00    -12.00      0.00
  25900.00    654.30      0.00    -12.00      0.00
  25950.00    656.21      0.00    -12.00      0.00
  26000.00    658.14      0.00    -12.00      0.00
  26050.00    660.07      0.00    -12.00      0.00
  26100.00    662.00      0.00    -12.00      0.00
  26150.00    663.93      0.00    -12.00      0.00
  26200.00    665.87      0.00    -12.00      0.00
  26250.00    667.82      0.00    -12.00      0.00
  26300.00    669.77      0.00    -12.00      0.00
  26350.00    671.72      0.00    -12.00      0.00
  26400.00    673.68      0.00    -12.00      0.00
  26450.00    675.64      0.00    -12.00      0.00
  26500.00    677.60      0.00    -12.00      0.00
  26550.00    679.57      0.00    -12.00      0.00
  26600.00    681.55      0.00    -12.00      0.00
  26650.00    683.53      0.00    -12.00      0.00
  26700.00    685.51      0.00    -12.00      0.00
  26750.00    687.50      0.00    -12.00      0.00
  26800.00    689.49      0.00    -12.00      0.00
  26850.00    691.48      0.00    -12.00      0.00
  26900.00    693.48      0.00    -12.00      0.00
  26950.00    695.49      0.00    -12.00      0.00
  27000.00    697.50      0.00    -12.00      0.00
  27050.00    699.51      0.00    -12.00      0.00
  27100.00    701.53      0.00    -12.00      0.00
  27150.00    703.55      0.00    -12.00      0.00
  27200.00    705.58      0.00    -12.00      0.00
  27250.00    707.61      0.00    -12.00      0.00
  27300.00    709.64      0.00    -12.00      0.00
  27350.00    711.68      0.00    -12.00      0.00
  27400.00    713.73      0.00    -12.00      0.00
  27450.00    715.77      0.00    -12.00      0.00
  27500.00    717.83      0.00    -12.00      0.00
  27550.00    719.88      0.00    -12.00      0.00
  27600.00    721.95      0.00    -12.00      0.00
  27650.00    724.01      0.00    -12.00      0.00
  27700.00    726.08      0.00    -12.00      0.00
  27750.00    728.16      0.00    -12.00      0.00
  27800.00    730.24      0.00    -12.00      0.00
  27850.00    732.32      0.00    -12.00      0.00
  27900.00    734.41      0.00    -12.00      0.00
  27950.00    736.50      0.00    -12.00      0.00
  28000.00    738.60      0.00    -12.00      0.00
  28050.00    740.70      0.00    -12.00      0.00
  28100.00    742.81      0.00    -12.00      0.00
  28150.00    744.92      0.00    -12.00      0.00
  28200.00    747.04      0.00    -12.00      0.00
  28250.00    749.16      0.00    -12.00      0.00
  28300.00    751.28      0.00    -12.00      0.00
  28350.00    753.41      0.00    -12.00      0.00
  28400.00    755.54      0.00    -12.00      0.00
  28450.00    757.68      0.00    -12.00      0.00
  28500.00    759.82      0.00    -12.00      0.00
  28550.00    761.97      0.00    -12.00      0.00
  28600.00    764.12      0.00    -12.00      0.00
  28650.00    766.28      0.00    -12.00      0.00
  28700.00    768.44      0.00    -12.00      0.00
  28750.00    770.61      0.00    -12.00      0.00
  28800.00    772.78      0.00    -12.00      0.00
  28850.00    774.95      0.00    -12.00      0.00
  28900.00    777.13      0.00    -12.00      0.00
  28950.00    779.32      0.00    -12.00      0.00
  29000.00    781.50      0.00    -12.00      0.00
  29050.00    783.70      0.00    -12.00      0.00
  29100.00    785.90      0.00    -12.00      0.00
  29150.00    788.10      0.00    -12.00      0.00
  29200.00    790.31      0.00    -12.00      0.00
  29250.00    792.52      0.00    -12.00      0.00
  29300.00    794.74      0.00    -12.00      0.00