   1000.00    299.00     17.15
      0.00    299.00     17.15    -10.00      0.00
     50.00    299.30     17.05    -10.00      0.00
    100.00    299.60     16.96    -10.00      0.00
    150.00    299.90     16.86    -10.00      0.00
    200.00    300.20     16.77    -10.00      0.00
    250.00    300.51     16.67    -10.00      0.00
    300.00    300.81     16.58    -10.00      0.00
    350.00    301.11     16.48    -10.00      0.00
    400.00    301.41     16.39    -10.00      0.00
    450.00    301.71     16.29    -10.00      0.00
    500.00    302.02     16.20    -10.00      0.00
    550.00    302.32     16.10    -10.00      0.00
    600.00    302.62     16.01    -10.00      0.00
    650.00    302.93     15.91    -10.00      0.00
    700.00    303.23     15.82    -10.00      0.00
    750.00    303.53     15.72    -10.00      0.00
    800.00    303.84     15.63    -10.00      0.00
    850.00    304.14     15.53    -10.00      0.00
    900.00    304.45     15.44    -10.00      0.00
    950.00    304.75     15.35    -10.00      0.00
   1000.00    305.06     15.25    -10.00      0.00
   1050.00    305.36     15.16    -10.00      0.00
   1100.00    305.67     15.06    -10.00      0.00
   1150.00    305.97     14.97    -10.00      0.00
   1200.00    306.28     14.87    -10.00      0.00
   1250.00    306.58     14.78    -10.00      0.00
   1300.00    306.89     14.69    -10.00      0.00
   1350.00    307.19     14.59    -10.00      0.00
   1400.00    307.50     14.50    -10.00      0.00
   1450.00    307.81     14.41    -10.00      0.00
   1500.00    308.11     14.31    -10.00      0.00
   1550.00    308.42     14.22    -10.00      0.00
   1600.00    308.72     14.13    -10.00      0.00
   1650.00    309.03     14.03    -10.00      0.00
   1700.00    309.34     13.94    -10.00      0.00
   1750.00    309.64     13.85    -10.00      0.00
   1800.00    309.95     13.76    -10.00      0.00
   1850.00    310.26     13.66    -10.00      0.00
   1900.00    310.57     13.57    -10.00      0.00
   1950.00    310.87     13.48    -10.00      0.00
   2000.00    311.18     13.39    -10.00      0.00
   2050.00    311.49     13.29    -10.00      0.00
   2100.00    311.80     13.20    -10.00      0.00
   2150.00    312.10     13.11    -10.00      0.00
   2200.00    312.41     13.02    -10.00      0.00
   2250.00    312.72     12.93    -10.00      0.00
   2300.00    313.03     12.83    -10.00      0.00
   2350.00    313.34     12.74    -10.00      0.00
   2400.00    313.64     12.65    -10.00      0.00
   2450.00    313.95     12.56    -10.00      0.00
   2500.00    314.26     12.47    -10.00      0.00
   2550.00    314.57     12.38    -10.00      0.00
   2600.00    314.88     12.29    -10.00      0.00
   2650.00    315.19     12.20    -10.00      0.00
   2700.00    315.49     12.11    -10.00      0.00
   2750.00    315.80     12.02    -10.00      0.00
   2800.00    316.11     11.93    -10.00      0.00
   2850.00    316.42     11.83    -10.00      0.00
   2900.00    316.73     11.74    -10.00      0.00
   2950.00    317.04     11.65    -10.00      0.00
   3000.00    317.35     11.56    -10.00      0.00
   3050.00    317.65     11.48    -10.00      0.00
   3100.00    317.96     11.39    -10.00      0.00
   3150.00    318.27     11.30    -10.00      0.00
   3200.00    318.58     11.21    -10.00      0.00
   3250.00    318.89     11.12    -10.00      0.00
   3300.00    319.20     11.03    -10.00      0.00
   3350.00    319.50     10.94    -10.00      0.00
   3400.00    319.81     10.85    -10.00      0.00
   3450.00    320.12     10.76    -10.00      0.00
   3500.00    320.43     10.67    -10.00      0.00
   3550.00    320.74     10.59    -10.00      0.00
   3600.00    321.05     10.50    -10.00      0.00
   3650.00    321.35     10.41    -10.00      0.00
   3700.00    321.66     10.32    -10.00      0.00
   3750.00    321.97     10.23    -10.00      0.00
   3800.00    322.28     10.15    -10.00      0.00
   3850.00    322.58     10.06    -10.00      0.00
   3900.00    322.89      9.97    -10.00      0.00
   3950.00    323.20      9.89    -10.00      0.00
   4000.00    323.51      9.80    -10.00      0.00
   4050.00    323.81      9.71    -10.00      0.00
   4100.00    324.12      9.63    -10.00      0.00
   4150.00    324.43      9.54    -10.00      0.00
   4200.00    324.73      9.45    -10.00      0.00
   4250.00    325.04      9.37    -10.00      0.00
   4300.00    325.35      9.28    -10.00      0.00
   4350.00    325.65      9.20    -10.00      0.00
   4400.00    325.96      9.11    -10.00      0.00
   4450.00    326.26      9.03    -10.00      0.00
   4500.00    326.57      8.94    -10.00      0.00
   4550.00    326.87      8.86    -10.00      0.00
   4600.00    327.18      8.77    -10.00      0.00
   4650.00    327.48      8.69    -10.00      0.00
   4700.00    327.79      8.60    -10.00      0.00
   4750.00    328.09      8.52    -10.00      0.00
   4800.00    328.40      8.44    -10.00      0.00
   4850.00    328.70      8.35    -10.00      0.00
   4900.00    329.00      8.27    -10.00      0.00
   4950.00    329.30      8.19    -10.00      0.00
   5000.00    329.61      8.10    -10.00      0.00
   5050.00    329.91      8.02    -10.00      0.00
   5100.00    330.21      7.94    -10.00      0.00
   5150.00    330.51      7.86    -10.00      0.00
   5200.00    330.81      7.77    -10.00      0.00
   5250.00    331.11      7.69    -10.00      0.00
   5300.00    331.41      7.61    -10.00      0.00
   5350.00    331.71      7.53    -10.00      0.00
   5400.00    332.01      7.45    -10.00      0.00
   5450.00    332.31      7.37    -10.00      0.00
   5500.00    332.61      7.29    -10.00      0.00
   5550.00    332.91      7.21    -10.00      0.00
   5600.00    333.21      7.13    -10.00      0.00
   5650.00    333.50      7.05    -10.00      0.00
   5700.00    333.80      6.97    -10.00      0.00
   5750.00    334.09      6.89    -10.00      0.00
   5800.00    334.39      6.81    -10.00      0.00
   5850.00    334.68      6.73    -10.00      0.00
   5900.00    334.98      6.65    -10.00      0.00
   5950.00    335.27      6.58    -10.00      0.00
   6000.00    335.57      6.50    -10.00      0.00
   6050.00    335.86      6.42    -10.00      0.00
   6100.00    336.15      6.34    -10.00      0.00
   6150.00    336.44      6.27    -10.00      0.00
   6200.00    336.73      6.19    -10.00      0.00
   6250.00    337.02      6.12    -10.00      0.00
   6300.00    337.31      6.04    -10.00      0.00
   6350.00    337.60      5.96    -10.00      0.00
   6400.00    337.89      5.89    -10.00      0.00
   6450.00    338.17      5.81    -10.00      0.00
   6500.00    338.46      5.74    -10.00      0.00
   6550.00    338.74      5.66    -10.00      0.00
   6600.00    339.03      5.59    -10.00      0.00
   6650.00    339.31      5.52    -10.00      0.00
   6700.00    339.59      5.44    -10.00      0.00
   6750.00    339.88      5.37    -10.00      0.00
   6800.00    340.16      5.30    -10.00      0.00
   6850.00    340.44      5.23    -10.00      0.00
   6900.00    340.72      5.15    -10.00      0.00
   6950.00    340.99      5.08    -10.00      0.00
   7000.00    341.27      5.01    -10.00      0.00
   7050.00    341.55      4.94    -10.00      0.00
   7100.00    341.82      4.87    -10.00      0.00
   7150.00    342.10      4.80    -10.00      0.00
   7200.00    342.37      4.73    -10.00      0.00
   7250.00    342.64      4.66    -10.00      0.00
   7300.00    342.91      4.59    -10.00      0.00
   7350.00    343.18      4.52    -10.00      0.00
   7400.00    343.45      4.45    -10.00      0.00
   7450.00    343.72      4.39    -10.00      0.00
   7500.00    343.99      4.32    -10.00      0.00
   7550.00    344.25      4.25    -10.00      0.00
   7600.00    344.52      4.19    -10.00      0.00
   7650.00    344.78      4.12    -10.00      0.00
   7700.00    345.04      4.05    -10.00      0.00
   7750.00    345.30      3.99    -10.00      0.00
   7800.00    345.56      3.92    -10.00      0.00
   7850.00    345.82      3.86    -10.00      0.00
   7900.00    346.07      3.80    -10.00      0.00
   7950.00    346.33      3.73    -10.00      0.00
   8000.00    346.58      3.67    -10.00      0.00
   8050.00    346.83      3.61    -10.00      0.00
   8100.00    347.08      3.55    -10.00      0.00
   8150.00    347.33      3.48    -10.00      0.00
   8200.00    347.58      3.42    -10.00      0.00
   8250.00    347.82      3.36    -10.00      0.00
   8300.00    348.07      3.30    -10.00      0.00
   8350.00    348.31      3.24    -10.00      0.00
   8400.00    348.55      3.18    -10.00      0.00
   8450.00    348.79      3.12    -10.00      0.00
   8500.00    349.03      3.07    -10.00      0.00
   8550.00    349.26      3.01    -10.00      0.00
   8600.00    349.50      2.95    -10.00      0.00
   8650.00    349.73      2.89    -10.00      0.00
   8700.00    349.96      2.84    -10.00      0.00
   8750.00    350.19      2.78    -10.00      0.00
   8800.00    350.42      2.73    -10.00      0.00
   8850.00    350.64      2.67    -10.00      0.00
   8900.00    350.87      2.62    -10.00      0.00
   8950.00    351.09      2.57    -10.00      0.00
   9000.00    351.31      2.51    -10.00      0.00
   9050.00    351.52      2.46    -10.00      0.00
   9100.00    351.74      2.41    -10.00      0.00
   9150.00    351.95      2.36    -10.00      0.00
   9200.00    352.16      2.31    -10.00      0.00
   9250.00    352.37      2.26    -10.00      0.00
   9300.00    352.58      2.21    -10.00      0.00
   9350.00    352.79      2.16    -10.00      0.00
   9400.00    352.99      2.11    -10.00      0.00
   9450.00    353.19      2.06    -10.00      0.00
   9500.00    353.39      2.02    -10.00      0.00
   9550.00    353.58      1.97    -10.00      0.00
   9600.00    353.78      1.92    -10.00      0.00
   9650.00    353.97      1.88    -10.00      0.00
   9700.00    354.16      1.83    -10.00      0.00
   9750.00    354.35      1.79    -10.00      0.00
   9800.00    354.53      1.75    -10.00      0.00
   9850.00    354.71      1.70    -10.00      0.00
   9900.00    354.90      1.66    -10.00      0.00
   9950.00    355.07      1.62    -10.00      0.00
  10000.00    355.25      1.58    -10.00      0.00
  10050.00    355.42      1.54    -10.00      0.00
  10100.00    355.59      1.50    -10.00      0.00
  10150.00    355.76      1.46    -10.00      0.00
  10200.00    355.93      1.42    -10.00      0.00
  10250.00    356.09      1.38    -10.00      0.00
  10300.00    356.25      1.35    -10.00      0.00
  10350.00    356.41      1.31    -10.00      0.00
  10400.00    356.57      1.27    -10.00      0.00
  10450.00    356.72      1.24    -10.00      0.00
  10500.00    356.87      1.20    -10.00      0.00
  10550.00    357.02      1.17    -10.00      0.00
  10600.00    357.17      1.14    -10.00      0.00
  10650.00    357.31      1.10    -10.00      0.00
  10700.00    357.45      1.07    -10.00      0.00
  10750.00    357.59      1.04    -10.00      0.00
  10800.00    357.72      1.01    -10.00      0.00
  10850.00    357.86      0.98    -10.00      0.00
  10900.00    357.99      0.95    -10.00      0.00
  10950.00    358.12      0.92    -10.00      0.00
  11000.00    358.24      0.89    -10.00      0.00
  11050.00    358.37      0.86    -10.00      0.00
  11100.00    358.49      0.84    -10.00      0.00
  11150.00    358.61      0.81    -10.00      0.00
  11200.00    358.72      0.78    -10.00      0.00
  11250.00    358.83      0.76    -10.00      0.00
  11300.00    358.95      0.73    -10.00      0.00
  11350.00    359.05      0.71    -10.00      0.00
  11400.00    359.16      0.69    -10.00      0.00
  11450.00    359.26      0.66    -10.00      0.00
  11500.00    359.37      0.64    -10.00      0.00
  11550.00    359.46      0.62    -10.00      0.00
  11600.00    359.56      0.60    -10.00      0.00
  11650.00    359.65      0.58    -10.00      0.00
  11700.00    359.75      0.56    -10.00      0.00
  11750.00    359.84      0.54    -10.00      0.00
  11800.00    359.92      0.52    -10.00      0.00
  11850.00    360.01      0.50    -10.00      0.00
  11900.00    360.09      0.48    -10.00      0.00
  11950.00    360.17      0.46    -10.00      0.00
  12000.00    360.25      0.44    -10.00      0.00
  12050.00    360.33      0.43    -10.00      0.00
  12100.00    360.40      0.41    -10.00      0.00
  12150.00    360.47      0.40    -10.00      0.00
  12200.00    360.54      0.38    -10.00      0.00
  12250.00    360.61      0.37    -10.00      0.00
  12300.00    360.68      0.35    -10.00      0.00
  12350.00    360.74      0.34    -10.00      0.00
  12400.00    360.80      0.32    -10.00      0.00
  12450.00    360.86      0.31    -10.00      0.00
  12500.00    360.92      0.30    -10.00      0.00
  12550.00    360.98      0.29    -10.00      0.00
  12600.00    361.03      0.27    -10.00      0.00
  12650.00    361.09      0.26    -10.00      0.00
  12700.00    361.14      0.25    -10.00      0.00
  12750.00    361.19      0.24    -10.00      0.00
  12800.00    361.23      0.23    -10.00      0.00
  12850.00    361.28      0.22    -10.00      0.00
  12900.00    361.33      0.21    -10.00      0.00
  12950.00    361.37      0.20    -10.00      0.00
  13000.00    361.41      0.19    -10.00      0.00
  13050.00    361.45      0.19    -10.00      0.00
  13100.00    361.49      0.18    -10.00      0.00
  13150.00    361.53      0.17    -10.00      0.00
  13200.00    361.56      0.16    -10.00      0.00
  13250.00    361.60      0.15    -10.00      0.00
  13300.00    361.63      0.15    -10.00      0.00
  13350.00    361.66      0.14    -10.00      0.00
  13400.00    361.69      0.13    -10.00      0.00
  13450.00    361.72      0.13    -10.00      0.00
  13500.00    361.75      0.12    -10.00      0.00
  13550.00    361.78      0.12    -10.00      0.00
  13600.00    361.81      0.11    -10.00      0.00
  13650.00    361.83      0.11    -10.00      0.00
  13700.00    361.86      0.10    -10.00      0.00
  13750.00    361.88      0.10    -10.00      0.00
  13800.00    361.90      0.09    -10.00      0.00
  13850.00    361.92      0.09    -10.00      0.00
  13900.00    361.94      0.08    -10.00      0.00
  13950.00    361.96      0.08    -10.00      0.00
  14000.00    361.98      0.07    -10.00      0.00
  14050.00    362.00      0.07    -10.00      0.00
  14100.00    362.02      0.07    -10.00      0.00
  14150.00    362.04      0.06    -10.00      0.00
  14200.00    362.05      0.06    -10.00      0.00
  14250.00    362.07      0.06    -10.00      0.00
  14300.00    362.08      0.05    -10.00      0.00
  14350.00    362.10      0.05    -10.00      0.00
  14400.00    362.11      0.05    -10.00      0.00
  14450.00    362.12      0.05    -10.00      0.00
  14500.00    362.13      0.04    -10.00      0.00
  14550.00    362.14      0.04    -10.00      0.00
  14600.00    362.16      0.04    -10.00      0.00
  14650.00    362.17      0.04    -10.00      0.00
  14700.00    362.18      0.03    -10.00      0.00
  14750.00    362.19      0.03    -10.00      0.00
  14800.00    362.19      0.03    -10.00      0.00
  14850.00    362.20      0.03    -10.00      0.00
  14900.00    362.21      0.03    -10.00      0.00
  14950.00    362.22      0.03    -10.00      0.00
  15000.00    362.23      0.02    -10.00      0.00
  15050.00    362.23      0.02    -10.00      0.00
  15100.00    362.24      0.02    -10.00      0.00
  15150.00    362.25      0.02    -10.00      0.00
  15200.00    362.25      0.02    -10.00      0.00
  15250.00    362.26      0.02    -10.00      0.00
  15300.00    362.26      0.02    -10.00      0.00
  15350.00    362.27      0.02    -10.00      0.00
  15400.00    362.27      0.02    -10.00      0.00
  15450.00    362.28      0.01    -10.00      0.00
  15500.00    362.28      0.01    -10.00      0.00
  15550.00    362.29      0.01    -10.00      0.00
  15600.00    362.29      0.01    -10.00      0.00
  15650.00    362.29      0.01    -10.00      0.00
  15700.00    362.30      0.01    -10.00      0.00
  15750.00    362.30      0.01    -10.00      0.00
  15800.00    362.30      0.01    -10.00      0.00
  15850.00    362.31      0.01    -10.00      0.00
  15900.00    362.31      0.01    -10.00      0.00
  15950.00    362.31      0.01    -10.00      0.00
  16000.00    362.32      0.01    -10.00      0.00
  16050.00    362.32      0.01    -10.00      0.00
  16100.00    362.32      0.01    -10.00      0.00
  16150.00    362.32      0.01    -10.00      0.00
  16200.00    362.32      0.01    -10.00      0.00
  16250.00    362.33      0.00    -10.00      0.00
  16300.00    362.33      0.00    -10.00      0.00
  16350.00    362.33      0.00    -10.00      0.00
  16400.00    362.33      0.00    -10.00      0.00
  16450.00    362.33      0.00    -10.00      0.00
  16500.00    362.33      0.00    -10.00      0.00
  16550.00    362.33      0.00    -10.00      0.00
  16600.00    362.34      0.00    -10.00      0.00
  16650.00    362.34      0.00    -10.00      0.00
  16700.00    362.34      0.00    -10.00      0.00
  16750.00    362.34      0.00    -10.00      0.00
  16800.00    362.34      0.00    -10.00      0.00
  16850.00    362.34      0.00    -10.00      0.00
  16900.00    362.34      0.00    -10.00      0.00
  16950.00    362.34      0.00    -10.00      0.00
  17000.00    362.34      0.00    -10.00      0.00
  17050.00    362.34      0.00    -10.00      0.00
  17100.00    362.34      0.00    -10.00      0.00
  17150.00    362.34      0.00    -10.00      0.00
  17200.00    362.34      0.00    -10.00      0.00
  17250.00    362.35      0.00    -10.00      0.00
  17300.00    362.35      0.00    -10.00      0.00
  17350.00    362.35      0.00    -10.00      0.00
  17400.00    362.35      0.00    -10.00      0.00
  17450.00    362.35      0.00    -10.00      0.00
  17500.00    362.35      0.00    -10.00      0.00
  17550.00    362.35      0.00    -10.00      0.00
  17600.00    362.35      0.00    -10.00      0.00
  17650.00    362.35      0.00    -10.00      0.00
  17700.00    362.35      0.00    -10.00      0.00
  17750.00    362.35      0.00    -10.00      0.00
  17800.00    362.35      0.00    -10.00      0.00
  17850.00    362.35      0.00    -10.00      0.00
  17900.00    362.35      0.00    -10.00      0.00
  17950.00    362.35      0.00    -10.00      0.00
  18000.00    362.35      0.00    -10.00      0.00
  18050.00    362.35      0.00    -10.00      0.00
  18100.00    362.35      0.00    -10.00      0.00
  18150.00    362.35      0.00    -10.00      0.00
  18200.00    362.35      0.00    -10.00      0.00
  18250.00    362.35      0.00    -10.00      0.00
  18300.00    362.35      0.00    -10.00      0.00
  18350.00    362.35      0.00    -10.00      0.00
  18400.00    362.35      0.00    -10.00      0.00
  18450.00    362.35      0.00    -10.00      0.00
  18500.00    362.35      0.00    -10.00      0.00
  18550.00    362.35      0.00    -10.00      0.00
  18600.00    362.35      0.00    -10.00      0.00
  18650.00    362.35      0.00    -10.00      0.00
  18700.00    362.35      0.00    -10.00      0.00
  18750.00    362.35      0.00    -10.00      0.00
  18800.00    362.35      0.00    -10.00      0.00
  18850.00    362.35      0.00    -10.00      0.00
  18900.00    362.35      0.00    -10.00      0.00
  18950.00    362.35      0.00    -10.00      0.00
  19000.00    362.35      0.00    -10.00      0.00
  19050.00    362.35      0.00    -10.00      0.00
  19100.00    362.35      0.00    -10.00      0.00
  19150.00    362.35      0.00    -10.00      0.00
  19200.00    362.35      0.00    -10.00      0.00
  19250.00    362.35      0.00    -10.00      0.00
  19300.00    362.35      0.00    -10.00      0.00
  19350.00    362.35      0.00    -10.00      0.00
  19400.00    362.35      0.00    -10.00      0.00
  19450.00    362.35      0.00    -10.00      0.00
  19500.00    362.35      0.00    -10.00      0.00
  19550.00    362.35      0.00    -10.00      0.00
  19600.00    362.35      0.00    -10.00      0.00
  19650.00    362.35      0.00    -10.00      0.00
  19700.00    362.35      0.00    -10.00      0.00
  19750.00    362.35      0.00    -10.00      0.00
  19800.00    362.35      0.00    -10.00      0.00
  19850.00    362.35      0.00    -10.00      0.00
  19900.00    362.35      0.00    -10.00      0.00
  19950.00    362.35      0.00    -10.00      0.00
  20000.00    362.35      0.00    -10.00      0.00
  20050.00    362.35      0.00    -10.00      0.00
  20100.00    362.35      0.00    -10.00      0.00
  20150.00    362.35      0.00    -10.00      0.00
  20200.00    362.35      0.00    -10.00      0.00
  20250.00    362.35      0.00    -10.00      0.00
  20300.00    362.35      0.00    -10.00      0.00
  20350.00    362.35      0.00    -10.00      0.00
  20400.00    362.35      0.00    -10.00      0.00
  20450.00    362.35      0.00    -10.00      0.00
  20500.00    362.35      0.00    -10.00      0.00
  20550.00    362.35      0.00    -10.00      0.00
  20600.00    362.35      0.00    -10.00      0.00
  20650.00    362.35      0.00    -10.00      0.00
  20700.00    362.35      0.00    -10.00      0.00
  20750.00    362.35      0.00    -10.00      0.00
  20800.00    362.35      0.00    -10.00      0.00
  20850.00    362.35      0.00    -10.00      0.00
  20900.00    362.35      0.00    -10.00      0.00
  20950.00    362.35      0.00    -10.00      0.00
  21000.00    362.35      0.00    -10.00      0.00
  21050.00    362.35      0.00    -10.00      0.00
  21100.00    362.35      0.00    -10.00      0.00
  21150.00    362.35      0.00    -10.00      0.00
  21200.00    362.35      0.00    -10.00      0.00
  21250.00    362.35      0.00    -10.00      0.00
  21300.00    362.35      0.00    -10.00      0.00
  21350.00    362.35      0.00    -10.00      0.00
  21400.00    362.35      0.00    -10.00      0.00
  21450.00    362.35      0.00    -10.00      0.00
  21500.00    362.35      0.00    -10.00      0.00
  21550.00    362.35      0.00    -10.00      0.00
  21600.00    362.35      0.00    -10.00      0.00
  21650.00    362.35      0.00    -10.00      0.00
  21700.00    362.35      0.00    -10.00      0.00
  21750.00    362.35      0.00    -10.00      0.00
  21800.00    362.35      0.00    -10.00      0.00
  21850.00    362.35      0.00    -10.00      0.00
  21900.00    362.35      0.00    -10.00      0.00
  21950.00    362.35      0.00    -10.00      0.00
  22000.00    362.35      0.00    -10.00      0.00
  22050.00    362.35      0.00    -10.00      0.00
  22100.00    362.35      0.00    -10.00      0.00
  22150.00    362.35      0.00    -10.00      0.00
  22200.00    362.35      0.00    -10.00      0.00
  22250.00    362.35      0.00    -10.00      0.00
  22300.00    362.35      0.00    -10.00      0.00
  22350.00    362.35      0.00    -10.00      0.00
  22400.00    362.35      0.00    -10.00      0.00
  22450.00    362.35      0.00    -10.00      0.00
  22500.00    362.35      0.00    -10.00      0.00
  22550.00    362.35      0.00    -10.00      0.00
  22600.00    362.35      0.00    -10.00      0.00
  22650.00    362.35      0.00    -10.00      0.00
  22700.00    362.35      0.00    -10.00      0.00
  22750.00    362.35      0.00    -10.00      0.00
  22800.00    362.35      0.00    -10.00      0.00
  22850.00    362.35      0.00    -10.00      0.00
  22900.00    362.35      0.00    -10.00      0.00
  22950.00    362.35      0.00    -10.00      0.00
  23000.00    362.35      0.00    -10.00      0.00
  23050.00    362.35      0.00    -10.00      0.00
  23100.00    362.35      0.00    -10.00      0.00
  23150.00    362.35      0.00    -10.00      0.00
  23200.00    362.35      0.00    -10.00      0.00
  23250.00    362.35      0.00    -10.00      0.00
  23300.00    362.35      0.00    -10.00      0.00
  23350.00    362.35      0.00    -10.00      0.00
  23400.00    362.35      0.00    -10.00      0.00
  23450.00    362.35      0.00    -10.00      0.00
  23500.00    362.35      0.00    -10.00      0.00
  23550.00    362.35      0.00    -10.00      0.00
  23600.00    362.35      0.00    -10.00      0.00
  23650.00    362.35      0.00    -10.00      0.00
  23700.00    362.35      0.00    -10.00      0.00
  23750.00    362.35      0.00    -10.00      0.00
  23800.00    362.35      0.00    -10.00      0.00
  23850.00    362.35      0.00    -10.00      0.00
  23900.00    362.35      0.00    -10.00      0.00
  23950.00    362.35      0.00    -10.00      0.00
  24000.00    362.35      0.00    -10.00      0.00
  24050.00    362.35      0.00    -10.00      0.00
  24100.00    362.35      0.00    -10.00      0.00
  24150.00    362.35      0.00    -10.00      0.00
  24200.00    362.35      0.00    -10.00      0.00
  24250.00    362.35      0.00    -10.00      0.00
  24300.00    362.35      0.00    -10.00      0.00
  24350.00    362.35      0.00    -10.00      0.00
  24400.00    362.35      0.00    -10.00      0.00
  24450.00    362.35      0.00    -10.00      0.00
  24500.00    362.35      0.00    -10.00      0.00
  24550.00    362.35      0.00    -10.00      0.00
  24600.00    362.35      0.00    -10.00      0.00
  24650.00    362.35      0.00    -10.00      0.00
  24700.00    362.35      0.00    -10.00      0.00
  24750.00    362.35      0.00    -10.00      0.00
  24800.00    362.35      0.00    -10.00      0.00
  24850.00    362.35      0.00    -10.00      0.00
  24900.00    362.35      0.00    -10.00      0.00
  24950.00    362.35      0.00    -10.00      0.00
  25000.00    362.35      0.00    -10.00      0.00
  25050.00    362.35      0.00    -10.00      0.00
  25100.00    362.35      0.00    -10.00      0.00
  25150.00    362.35      0.00    -10.00      0.00
  25200.00    362.35      0.00    -10.00      0.00
  25250.00    362.35      0.00    -10.00      0.00
  25300.00    362.35      0.00    -10.00      0.00
  25350.00    362.35      0.00    -10.00      0.00
  25400.00    362.35      0.00    -10.00      0.00
  25450.00    362.35      0.00    -10.00      0.00
  25500.00    362.35      0.00    -10.00      0.00
  25550.00    362.35      0.00    -10.00      0.00
  25600.00    362.35      0.00    -10.00      0.00
  25650.00    362.35      0.00    -10.00      0.00
  25700.00    362.35      0.00    -10.00      0.00
  25750.00    362.35      0.00    -10.00      0.00
  25800.00    362.35      0.00    -10.00      0.00
  25850.00    362.35      0.00    -10.00      0.00
  25900.00    362.35      0.00    -10.00      0.00
  25950.00    362.35      0.00    -10.00      0.00
  26000.00    362.35      0.00    -10.00      0.00
  26050.00    362.35      0.00    -10.00      0.00
  26100.00    362.35      0.00    -10.00      0.00
  26150.00    362.35      0.00    -10.00      0.00
  26200.00    362.35      0.00    -10.00      0.00
  26250.00    362.35      0.00    -10.00      0.00
  26300.00    362.35      0.00    -10.00      0.00
  26350.00    362.35      0.00    -10.00      0.00
  26400.00    362.35      0.00    -10.00      0.00
  26450.00    362.35      0.00    -10.00      0.00
  26500.00    362.35      0.00    -10.00      0.00
  26550.00    362.35      0.00    -10.00      0.00
  26600.00    362.35      0.00    -10.00      0.00
  26650.00    362.35      0.00    -10.00      0.00
  26700.00    362.35      0.00    -10.00      0.00
  26750.00    362.35      0.00    -10.00      0.00
  26800.00    362.35      0.00    -10.00      0.00
  26850.00    362.35      0.00    -10.00      0.00
  26900.00    362.35      0.00    -10.00      0.00
  26950.00    362.35      0.00    -10.00      0.00
  27000.00    362.35      0.00    -10.00      0.00
  27050.00    362.35      0.00    -10.00      0.00
  27100.00    362.35      0.00    -10.00      0.00
  27150.00    362.35      0.00    -10.00      0.00
  27200.00    362.35      0.00    -10.00      0.00
  27250.00    362.35      0.00    -10.00      0.00
  27300.00    362.35      0.00    -10.00      0.00
  27350.00    362.35      0.00    -10.00      0.00
  27400.00    362.35      0.00    -10.00      0.00
  27450.00    362.35      0.00    -10.00      0.00
  27500.00    362.35      0.00    -10.00      0.00
  27550.00    362.35      0.00    -10.00      0.00
  27600.00    362.35      0.00    -10.00      0.00
  27650.00    362.35      0.00    -10.00      0.00
  27700.00    362.35      0.00    -10.00      0.00
  27750.00    362.35      0.00    -10.00      0.00
  27800.00    362.35      0.00    -10.00      0.00
  27850.00    362.35      0.00    -10.00      0.00
  27900.00    362.35      0.00    -10.00      0.00
  27950.00    362.35      0.00    -10.00      0.00
  28000.00    362.35      0.00    -10.00      0.00
  28050.00    362.35      0.00    -10.00      0.00
  28100.00    362.35      0.00    -10.00      0.00
  28150.00    362.35      0.00    -10.00      0.00
  28200.00    362.35      0.00    -10.00      0.00
  28250.00    362.35      0.00    -10.00      0.00
  28300.00    362.35      0.00    -10.00      0.00
  28350.00    362.35      0.00    -10.00      0.00
  28400.00    362.35      0.00    -10.00      0.00
  28450.00    362.35      0.00    -10.00      0.00
  28500.00    362.35      0.00    -10.00      0.00
  28550.00    362.35      0.00    -10.00      0.00
  28600.00    362.35      0.00    -10.00      0.00
  28650.00    362.35      0.00    -10.00      0.00
  28700.00    362.35      0.00    -10.00      0.00
  28750.00    362.35      0.00    -10.00      0.00
  28800.00    362.35      0.00    -10.00      0.00
  28850.00    362.35      0.00    -10.00      0.00
  28900.00    362.35      0.00    -10.00      0.00
  28950.00    362.35      0.00    -10.00      0.00
  29000.00    362.35      0.00    -10.00      0.00
  29050.00    362.35      0.00    -10.00      0.00
  29100.00    362.35      0.00    -10.00      0.00
  29150.00    362.35      0.00    -10.00      0.00
  29200.00    362.35      0.00    -10.00      0.00
  29250.00    362.35      0.00    -10.00      0.00
  29300.00    362.35      0.00    -10.00      0.00