  1000.000    293.00     11.67
      0.00    293.00     11.67     10.00      0.00
     50.00    293.15     11.49     10.00      0.00
    100.00    293.29     11.30     10.00      0.00
    150.00    293.44     11.13     10.00      0.00
    200.00    293.59     10.96     10.00      0.00
    250.00    293.74     10.79     10.00      0.00
    300.00    293.88     10.62     10.00      0.00
    350.00    294.03     10.45     10.00      0.00
    400.00    294.18     10.29     10.00      0.00
    450.00    294.32     10.12     10.00      0.00
    500.00    294.47      9.96     10.00      0.00
    550.00    294.62      9.80     10.00      0.00
    600.00    294.77      9.64     10.00      0.00
    650.00    294.92      9.49     10.00      0.00
    700.00    295.06      9.33     10.00      0.00
    750.00    295.21      9.18     10.00      0.00
    800.00    295.36      9.03     10.00      0.00
    850.00    295.51      8.88     10.00      0.00
    900.00    295.66      8.74     10.00      0.00
    950.00    295.80      8.59     10.00      0.00
   1000.00    295.95      8.45     10.00      0.00
   1050.00    296.10      8.31     10.00      0.00
   1100.00    296.25      8.17     10.00      0.00
   1150.00    296.40      8.04     10.00      0.00
   1200.00    296.55      7.90     10.00      0.00
   1250.00    296.69      7.76     10.00      0.00
   1300.00    296.84      7.63     10.00      0.00
   1350.00    296.99      7.50     10.00      0.00
   1400.00    297.14      7.38     10.00      0.00
   1450.00    297.29      7.25     10.00      0.00
   1500.00    297.44      7.12     10.00      0.00
   1550.00    297.59      7.00     10.00      0.00
   1600.00    297.74      6.88     10.00      0.00
   1650.00    297.89      6.76     10.00      0.00
   1700.00    298.04      6.64     10.00      0.00
   1750.00    298.19      6.53     10.00      0.00
   1800.00    298.34      6.41     10.00      0.00
   1850.00    298.49      6.30     10.00      0.00
   1900.00    298.63      6.18     10.00      0.00
   1950.00    298.78      6.07     10.00      0.00
   2000.00    298.93      5.96     10.00      0.00
   2050.00    299.08      5.86     10.00      0.00
   2100.00    299.23      5.75     10.00      0.00
   2150.00    299.38      5.65     10.00      0.00
   2200.00    299.53      5.55     10.00      0.00
   2250.00    299.68      5.44     10.00      0.00
   2300.00    299.84      5.35     10.00      0.00
   2350.00    299.99      5.25     10.00      0.00
   2400.00    300.14      5.15     10.00      0.00
   2450.00    300.29      5.06     10.00      0.00
   2500.00    300.44      4.96     10.00      0.00
   2550.00    300.59      4.87     10.00      0.00
   2600.00    300.74      4.78     10.00      0.00
   2650.00    300.89      4.69     10.00      0.00
   2700.00    301.04      4.60     10.00      0.00
   2750.00    301.19      4.51     10.00      0.00
   2800.00    301.34      4.42     10.00      0.00
   2850.00    301.49      4.34     10.00      0.00
   2900.00    301.64      4.26     10.00      0.00
   2950.00    301.80      4.18     10.00      0.00
   3000.00    301.95      4.09     10.00      0.00
   3050.00    302.10      4.01     10.00      0.00
   3100.00    302.25      3.93     10.00      0.00
   3150.00    302.40      3.85     10.00      0.00
   3200.00    302.55      3.77     10.00      0.00
   3250.00    302.71      3.69     10.00      0.00
   3300.00    302.86      3.61     10.00      0.00
   3350.00    303.01      3.53     10.00      0.00
   3400.00    303.16      3.45     10.00      0.00
   3450.00    303.31      3.38     10.00      0.00
   3500.00    303.47      3.30     10.00      0.00
   3550.00    303.62      3.23     10.00      0.00
   3600.00    303.77      3.15     10.00      0.00
   3650.00    303.92      3.08     10.00      0.00
   3700.00    304.07      3.01     10.00      0.00
   3750.00    304.23      2.94     10.00      0.00
   3800.00    304.38      2.87     10.00      0.00
   3850.00    304.53      2.80     10.00      0.00
   3900.00    304.69      2.73     10.00      0.00
   3950.00    304.84      2.67     10.00      0.00
   4000.00    304.99      2.60     10.00      0.00
   4050.00    305.14      2.54     10.00      0.00
   4100.00    305.30      2.48     10.00      0.00
   4150.00    305.45      2.41     10.00      0.00
   4200.00    305.60      2.35     10.00      0.00
   4250.00    305.76      2.29     10.00      0.00
   4300.00    305.91      2.24     10.00      0.00
   4350.00    306.06      2.18     10.00      0.00
   4400.00    306.22      2.12     10.00      0.00
   4450.00    306.37      2.07     10.00      0.00
   4500.00    306.53      2.01     10.00      0.00
   4550.00    306.68      1.96     10.00      0.00
   4600.00    306.83      1.91     10.00      0.00
   4650.00    306.99      1.86     10.00      0.00
   4700.00    307.14      1.81     10.00      0.00
   4750.00    307.29      1.76     10.00      0.00
   4800.00    307.45      1.71     10.00      0.00
   4850.00    307.60      1.67     10.00      0.00
   4900.00    307.76      1.62     10.00      0.00
   4950.00    307.91      1.58     10.00      0.00
   5000.00    308.07      1.53     10.00      0.00
   5050.00    308.22      1.49     10.00      0.00
   5100.00    308.38      1.45     10.00      0.00
   5150.00    308.53      1.41     10.00      0.00
   5200.00    308.69      1.37     10.00      0.00
   5250.00    308.84      1.33     10.00      0.00
   5300.00    309.00      1.30     10.00      0.00
   5350.00    309.15      1.26     10.00      0.00
   5400.00    309.31      1.22     10.00      0.00
   5450.00    309.46      1.19     10.00      0.00
   5500.00    309.62      1.16     10.00      0.00
   5550.00    309.77      1.12     10.00      0.00
   5600.00    309.93      1.09     10.00      0.00
   5650.00    310.08      1.06     10.00      0.00
   5700.00    310.24      1.03     10.00      0.00
   5750.00    310.39      1.00     10.00      0.00
   5800.00    310.55      0.97     10.00      0.00
   5850.00    310.71      0.95     10.00      0.00
   5900.00    310.86      0.92     10.00      0.00
   5950.00    311.02      0.89     10.00      0.00
   6000.00    311.17      0.87     10.00      0.00
   6050.00    311.33      0.84     10.00      0.00
   6100.00    311.49      0.82     10.00      0.00
   6150.00    311.64      0.79     10.00      0.00
   6200.00    311.80      0.77     10.00      0.00
   6250.00    311.95      0.75     10.00      0.00
   6300.00    312.11      0.73     10.00      0.00
   6350.00    312.27      0.71     10.00      0.00
   6400.00    312.42      0.69     10.00      0.00
   6450.00    312.58      0.67     10.00      0.00
   6500.00    312.74      0.65     10.00      0.00
   6550.00    312.90      0.63     10.00      0.00
   6600.00    313.05      0.61     10.00      0.00
   6650.00    313.21      0.59     10.00      0.00
   6700.00    313.37      0.57     10.00      0.00
   6750.00    313.52      0.56     10.00      0.00
   6800.00    313.68      0.54     10.00      0.00
   6850.00    313.84      0.52     10.00      0.00
   6900.00    314.00      0.51     10.00      0.00
   6950.00    314.15      0.49     10.00      0.00
   7000.00    314.31      0.48     10.00      0.00
   7050.00    314.47      0.46     10.00      0.00
   7100.00    314.63      0.45     10.00      0.00
   7150.00    314.79      0.43     10.00      0.00
   7200.00    314.94      0.42     10.00      0.00
   7250.00    315.10      0.41     10.00      0.00
   7300.00    315.26      0.39     10.00      0.00
   7350.00    315.42      0.38     10.00      0.00
   7400.00    315.58      0.37     10.00      0.00
   7450.00    315.73      0.36     10.00      0.00
   7500.00    315.89      0.35     10.00      0.00
   7550.00    316.05      0.34     10.00      0.00
   7600.00    316.21      0.33     10.00      0.00
   7650.00    316.37      0.32     10.00      0.00
   7700.00    316.53      0.30     10.00      0.00
   7750.00    316.69      0.30     10.00      0.00
   7800.00    316.85      0.29     10.00      0.00
   7850.00    317.00      0.28     10.00      0.00
   7900.00    317.16      0.27     10.00      0.00
   7950.00    317.32      0.26     10.00      0.00
   8000.00    317.48      0.25     10.00      0.00
   8050.00    317.64      0.24     10.00      0.00
   8100.00    317.80      0.23     10.00      0.00
   8150.00    317.96      0.23     10.00      0.00
   8200.00    318.12      0.22     10.00      0.00
   8250.00    318.28      0.21     10.00      0.00
   8300.00    318.44      0.20     10.00      0.00
   8350.00    318.60      0.20     10.00      0.00
   8400.00    318.76      0.19     10.00      0.00
   8450.00    318.92      0.18     10.00      0.00
   8500.00    319.08      0.18     10.00      0.00
   8550.00    319.24      0.17     10.00      0.00
   8600.00    319.40      0.17     10.00      0.00
   8650.00    319.56      0.16     10.00      0.00
   8700.00    319.72      0.15     10.00      0.00
   8750.00    319.88      0.15     10.00      0.00
   8800.00    320.04      0.14     10.00      0.00
   8850.00    320.20      0.14     10.00      0.00
   8900.00    320.36      0.13     10.00      0.00
   8950.00    320.52      0.13     10.00      0.00
   9000.00    320.69      0.12     10.00      0.00
   9050.00    320.85      0.12     10.00      0.00
   9100.00    321.01      0.12     10.00      0.00
   9150.00    321.17      0.11     10.00      0.00
   9200.00    321.33      0.11     10.00      0.00
   9250.00    321.49      0.10     10.00      0.00
   9300.00    321.65      0.10     10.00      0.00
   9350.00    321.81      0.10     10.00      0.00
   9400.00    321.98      0.09     10.00      0.00
   9450.00    322.14      0.09     10.00      0.00
   9500.00    322.30      0.09     10.00      0.00
   9550.00    322.46      0.08     10.00      0.00
   9600.00    322.62      0.08     10.00      0.00
   9650.00    322.78      0.08     10.00      0.00
   9700.00    322.95      0.07     10.00      0.00
   9750.00    323.11      0.07     10.00      0.00
   9800.00    323.27      0.07     10.00      0.00
   9850.00    323.43      0.07     10.00      0.00
   9900.00    323.60      0.06     10.00      0.00
   9950.00    323.76      0.06     10.00      0.00
  10000.00    323.92      0.06     10.00      0.00
  10050.00    324.08      0.06     10.00      0.00
  10100.00    324.25      0.05     10.00      0.00
  10150.00    324.41      0.05     10.00      0.00
  10200.00    324.57      0.05     10.00      0.00
  10250.00    324.74      0.05     10.00      0.00
  10300.00    324.90      0.05     10.00      0.00
  10350.00    325.06      0.04     10.00      0.00
  10400.00    325.22      0.04     10.00      0.00
  10450.00    325.39      0.04     10.00      0.00
  10500.00    325.55      0.04     10.00      0.00
  10550.00    325.72      0.04     10.00      0.00
  10600.00    325.88      0.04     10.00      0.00
  10650.00    326.04      0.03     10.00      0.00
  10700.00    326.21      0.03     10.00      0.00
  10750.00    326.37      0.03     10.00      0.00
  10800.00    326.53      0.03     10.00      0.00
  10850.00    326.70      0.03     10.00      0.00
  10900.00    326.86      0.03     10.00      0.00
  10950.00    327.03      0.03     10.00      0.00
  11000.00    327.19      0.03     10.00      0.00
  11050.00    327.35      0.02     10.00      0.00
  11100.00    327.52      0.02     10.00      0.00
  11150.00    327.68      0.02     10.00      0.00
  11200.00    327.85      0.02     10.00      0.00
  11250.00    328.01      0.02     10.00      0.00
  11300.00    328.18      0.02     10.00      0.00
  11350.00    328.34      0.02     10.00      0.00
  11400.00    328.51      0.02     10.00      0.00
  11450.00    328.67      0.02     10.00      0.00
  11500.00    328.84      0.02     10.00      0.00
  11550.00    329.00      0.02     10.00      0.00
  11600.00    329.17      0.01     10.00      0.00
  11650.00    329.33      0.01     10.00      0.00
  11700.00    329.50      0.01     10.00      0.00
  11750.00    329.66      0.01     10.00      0.00
  11800.00    329.83      0.01     10.00      0.00
  11850.00    330.00      0.01     10.00      0.00
  11900.00    330.16      0.01     10.00      0.00
  11950.00    330.33      0.01     10.00      0.00
  12000.00    330.49      0.01     10.00      0.00
  12050.00    330.66      0.01     10.00      0.00
  12100.00    330.83      0.01     10.00      0.00
  12150.00    330.99      0.01     10.00      0.00
  12200.00    331.16      0.01     10.00      0.00
  12250.00    331.32      0.01     10.00      0.00
  12300.00    331.49      0.01     10.00      0.00
  12350.00    331.66      0.01     10.00      0.00
  12400.00    331.82      0.01     10.00      0.00
  12450.00    331.99      0.01     10.00      0.00
  12500.00    332.16      0.01     10.00      0.00
  12550.00    332.32      0.01     10.00      0.00
  12600.00    332.49      0.01     10.00      0.00
  12650.00    332.66      0.01     10.00      0.00
  12700.00    332.82      0.01     10.00      0.00
  12750.00    332.99      0.00     10.00      0.00
  12800.00    333.16      0.00     10.00      0.00
  12850.00    333.33      0.00     10.00      0.00
  12900.00    333.49      0.00     10.00      0.00
  12950.00    333.66      0.00     10.00      0.00
  13000.00    333.83      0.00     10.00      0.00
  13050.00    334.00      0.00     10.00      0.00
  13100.00    334.16      0.00     10.00      0.00
  13150.00    334.33      0.00     10.00      0.00
  13200.00    334.50      0.00     10.00      0.00
  13250.00    334.67      0.00     10.00      0.00
  13300.00    334.84      0.00     10.00      0.00
  13350.00    335.01      0.00     10.00      0.00
  13400.00    335.17      0.00     10.00      0.00
  13450.00    335.34      0.00     10.00      0.00
  13500.00    335.51      0.00     10.00      0.00
  13550.00    335.68      0.00     10.00      0.00
  13600.00    335.85      0.00     10.00      0.00
  13650.00    336.02      0.00     10.00      0.00
  13700.00    336.19      0.00     10.00      0.00
  13750.00    336.35      0.00     10.00      0.00
  13800.00    336.52      0.00     10.00      0.00
  13850.00    336.69      0.00     10.00      0.00
  13900.00    336.86      0.00     10.00      0.00
  13950.00    337.03      0.00     10.00      0.00
  14000.00    337.20      0.00     10.00      0.00
  14050.00    337.37      0.00     10.00      0.00
  14100.00    337.54      0.00     10.00      0.00
  14150.00    337.71      0.00     10.00      0.00
  14200.00    337.88      0.00     10.00      0.00
  14250.00    338.05      0.00     10.00      0.00
  14300.00    338.22      0.00     10.00      0.00
  14350.00    338.39      0.00     10.00      0.00
  14400.00    338.56      0.00     10.00      0.00
  14450.00    338.73      0.00     10.00      0.00
  14500.00    338.90      0.00     10.00      0.00
  14550.00    339.07      0.00     10.00      0.00
  14600.00    339.24      0.00     10.00      0.00
  14650.00    339.41      0.00     10.00      0.00
  14700.00    339.58      0.00     10.00      0.00
  14750.00    339.75      0.00     10.00      0.00
  14800.00    339.92      0.00     10.00      0.00
  14850.00    340.09      0.00     10.00      0.00
  14900.00    340.26      0.00     10.00      0.00
  14950.00    340.43      0.00     10.00      0.00
  15000.00    340.61      0.00     10.00      0.00
  15050.00    340.78      0.00     10.00      0.00
  15100.00    340.95      0.00     10.00      0.00
  15150.00    341.12      0.00     10.00      0.00
  15200.00    341.29      0.00     10.00      0.00
  15250.00    341.46      0.00     10.00      0.00
  15300.00    341.63      0.00     10.00      0.00
  15350.00    341.81      0.00     10.00      0.00
  15400.00    341.98      0.00     10.00      0.00
  15450.00    342.15      0.00     10.00      0.00
  15500.00    342.32      0.00     10.00      0.00
  15550.00    342.49      0.00     10.00      0.00
  15600.00    342.67      0.00     10.00      0.00
  15650.00    342.84      0.00     10.00      0.00
  15700.00    343.01      0.00     10.00      0.00
  15750.00    343.18      0.00     10.00      0.00
  15800.00    343.35      0.00     10.00      0.00
  15850.00    343.53      0.00     10.00      0.00
  15900.00    343.70      0.00     10.00      0.00
  15950.00    343.87      0.00     10.00      0.00
  16000.00    344.05      0.00     10.00      0.00
  16050.00    344.22      0.00     10.00      0.00
  16100.00    344.39      0.00     10.00      0.00
  16150.00    344.56      0.00     10.00      0.00
  16200.00    344.74      0.00     10.00      0.00
  16250.00    344.91      0.00     10.00      0.00
  16300.00    345.08      0.00     10.00      0.00
  16350.00    345.26      0.00     10.00      0.00
  16400.00    345.43      0.00     10.00      0.00
  16450.00    345.60      0.00     10.00      0.00
  16500.00    345.78      0.00     10.00      0.00
  16550.00    345.95      0.00     10.00      0.00
  16600.00    346.13      0.00     10.00      0.00
  16650.00    346.30      0.00     10.00      0.00
  16700.00    346.47      0.00     10.00      0.00
  16750.00    346.65      0.00     10.00      0.00
  16800.00    346.82      0.00     10.00      0.00
  16850.00    347.00      0.00     10.00      0.00
  16900.00    347.17      0.00     10.00      0.00
  16950.00    347.35      0.00     10.00      0.00
  17000.00    347.52      0.00     10.00      0.00
  17050.00    347.70      0.00     10.00      0.00
  17100.00    347.87      0.00     10.00      0.00
  17150.00    348.05      0.00     10.00      0.00
  17200.00    348.22      0.00     10.00      0.00
  17250.00    348.40      0.00     10.00      0.00
  17300.00    348.57      0.00     10.00      0.00
  17350.00    348.75      0.00     10.00      0.00
  17400.00    348.92      0.00     10.00      0.00
  17450.00    349.10      0.00     10.00      0.00
  17500.00    349.27      0.00     10.00      0.00
  17550.00    349.45      0.00     10.00      0.00
  17600.00    349.62      0.00     10.00      0.00
  17650.00    349.80      0.00     10.00      0.00
  17700.00    349.97      0.00     10.00      0.00
  17750.00    350.15      0.00     10.00      0.00
  17800.00    350.33      0.00     10.00      0.00
  17850.00    350.50      0.00     10.00      0.00
  17900.00    350.68      0.00     10.00      0.00
  17950.00    350.86      0.00     10.00      0.00
  18000.00    351.03      0.00     10.00      0.00
  18050.00    351.21      0.00     10.00      0.00
  18100.00    351.38      0.00     10.00      0.00
  18150.00    351.56      0.00     10.00      0.00
  18200.00    351.74      0.00     10.00      0.00
  18250.00    351.92      0.00     10.00      0.00
  18300.00    352.09      0.00     10.00      0.00
  18350.00    352.27      0.00     10.00      0.00
  18400.00    352.45      0.00     10.00      0.00
  18450.00    352.62      0.00     10.00      0.00
  18500.00    352.80      0.00     10.00      0.00
  18550.00    352.98      0.00     10.00      0.00
  18600.00    353.16      0.00     10.00      0.00
  18650.00    353.33      0.00     10.00      0.00
  18700.00    353.51      0.00     10.00      0.00
  18750.00    353.69      0.00     10.00      0.00
  18800.00    353.87      0.00     10.00      0.00
  18850.00    354.04      0.00     10.00      0.00
  18900.00    354.22      0.00     10.00      0.00
  18950.00    354.40      0.00     10.00      0.00
  19000.00    354.58      0.00     10.00      0.00
  19050.00    354.76      0.00     10.00      0.00
  19100.00    354.94      0.00     10.00      0.00
  19150.00    355.11      0.00     10.00      0.00
  19200.00    355.29      0.00     10.00      0.00
  19250.00    355.47      0.00     10.00      0.00
  19300.00    355.65      0.00     10.00      0.00
  19350.00    355.83      0.00     10.00      0.00
  19400.00    356.01      0.00     10.00      0.00
  19450.00    356.19      0.00     10.00      0.00
  19500.00    356.37      0.00     10.00      0.00
  19550.00    356.55      0.00     10.00      0.00
  19600.00    356.72      0.00     10.00      0.00
  19650.00    356.90      0.00     10.00      0.00
  19700.00    357.08      0.00     10.00      0.00
  19750.00    357.26      0.00     10.00      0.00
  19800.00    357.44      0.00     10.00      0.00
  19850.00    357.62      0.00     10.00      0.00
  19900.00    357.80      0.00     10.00      0.00
  19950.00    357.98      0.00     10.00      0.00
  20000.00    358.16      0.00     10.00      0.00
  20050.00    358.34      0.00     10.00      0.00
  20100.00    358.52      0.00     10.00      0.00
  20150.00    358.70      0.00     10.00      0.00
  20200.00    358.88      0.00     10.00      0.00
  20250.00    359.06      0.00     10.00      0.00
  20300.00    359.24      0.00     10.00      0.00
  20350.00    359.43      0.00     10.00      0.00
  20400.00    359.61      0.00     10.00      0.00
  20450.00    359.79      0.00     10.00      0.00
  20500.00    359.97      0.00     10.00      0.00
  20550.00    360.15      0.00     10.00      0.00
  20600.00    360.33      0.00     10.00      0.00
  20650.00    360.51      0.00     10.00      0.00
  20700.00    360.69      0.00     10.00      0.00
  20750.00    360.87      0.00     10.00      0.00
  20800.00    361.06      0.00     10.00      0.00
  20850.00    361.24      0.00     10.00      0.00
  20900.00    361.42      0.00     10.00      0.00
  20950.00    361.60      0.00     10.00      0.00
  21000.00    361.78      0.00     10.00      0.00
  21050.00    361.96      0.00     10.00      0.00
  21100.00    362.15      0.00     10.00      0.00
  21150.00    362.33      0.00     10.00      0.00
  21200.00    362.51      0.00     10.00      0.00
  21250.00    362.69      0.00     10.00      0.00
  21300.00    362.88      0.00     10.00      0.00
  21350.00    363.06      0.00     10.00      0.00
  21400.00    363.24      0.00     10.00      0.00
  21450.00    363.42      0.00     10.00      0.00
  21500.00    363.61      0.00     10.00      0.00
  21550.00    363.79      0.00     10.00      0.00
  21600.00    363.97      0.00     10.00      0.00
  21650.00    364.16      0.00     10.00      0.00
  21700.00    364.34      0.00     10.00      0.00
  21750.00    364.52      0.00     10.00      0.00
  21800.00    364.71      0.00     10.00      0.00
  21850.00    364.89      0.00     10.00      0.00
  21900.00    365.07      0.00     10.00      0.00
  21950.00    365.26      0.00     10.00      0.00
  22000.00    365.44      0.00     10.00      0.00
  22050.00    365.62      0.00     10.00      0.00
  22100.00    365.81      0.00     10.00      0.00
  22150.00    365.99      0.00     10.00      0.00
  22200.00    366.18      0.00     10.00      0.00
  22250.00    366.36      0.00     10.00      0.00
  22300.00    366.54      0.00     10.00      0.00
  22350.00    366.73      0.00     10.00      0.00
  22400.00    366.91      0.00     10.00      0.00
  22450.00    367.10      0.00     10.00      0.00
  22500.00    367.28      0.00     10.00      0.00
  22550.00    367.47      0.00     10.00      0.00
  22600.00    367.65      0.00     10.00      0.00
  22650.00    367.84      0.00     10.00      0.00
  22700.00    368.02      0.00     10.00      0.00
  22750.00    368.21      0.00     10.00      0.00
  22800.00    368.39      0.00     10.00      0.00
  22850.00    368.58      0.00     10.00      0.00
  22900.00    368.76      0.00     10.00      0.00
  22950.00    368.95      0.00     10.00      0.00
  23000.00    369.13      0.00     10.00      0.00
  23050.00    369.32      0.00     10.00      0.00
  23100.00    369.51      0.00     10.00      0.00
  23150.00    369.69      0.00     10.00      0.00
  23200.00    369.88      0.00     10.00      0.00
  23250.00    370.06      0.00     10.00      0.00
  23300.00    370.25      0.00     10.00      0.00
  23350.00    370.44      0.00     10.00      0.00
  23400.00    370.62      0.00     10.00      0.00
  23450.00    370.81      0.00     10.00      0.00
  23500.00    371.00      0.00     10.00      0.00
  23550.00    371.18      0.00     10.00      0.00
  23600.00    371.37      0.00     10.00      0.00
  23650.00    371.56      0.00     10.00      0.00
  23700.00    371.74      0.00     10.00      0.00
  23750.00    371.93      0.00     10.00      0.00
  23800.00    372.12      0.00     10.00      0.00
  23850.00    372.30      0.00     10.00      0.00
  23900.00    372.49      0.00     10.00      0.00
  23950.00    372.68      0.00     10.00      0.00
  24000.00    372.87      0.00     10.00      0.00
  24050.00    373.05      0.00     10.00      0.00
  24100.00    373.24      0.00     10.00      0.00
  24150.00    373.43      0.00     10.00      0.00
  24200.00    373.62      0.00     10.00      0.00
  24250.00    373.81      0.00     10.00      0.00
  24300.00    373.99      0.00     10.00      0.00
  24350.00    374.18      0.00     10.00      0.00
  24400.00    374.37      0.00     10.00      0.00
  24450.00    374.56      0.00     10.00      0.00
  24500.00    374.75      0.00     10.00      0.00
  24550.00    374.94      0.00     10.00      0.00
  24600.00    375.12      0.00     10.00      0.00
  24650.00    375.31      0.00     10.00      0.00
  24700.00    375.50      0.00     10.00      0.00
  24750.00    375.69      0.00     10.00      0.00
  24800.00    375.88      0.00     10.00      0.00
  24850.00    376.07      0.00     10.00      0.00
  24900.00    376.26      0.00     10.00      0.00
  24950.00    376.45      0.00     10.00      0.00
  25000.00    376.64      0.00     10.00      0.00
  25050.00    376.83      0.00     10.00      0.00
  25100.00    377.02      0.00     10.00      0.00
  25150.00    377.21      0.00     10.00      0.00
  25200.00    377.40      0.00     10.00      0.00
  25250.00    377.59      0.00     10.00      0.00
  25300.00    377.78      0.00     10.00      0.00
  25350.00    377.97      0.00     10.00      0.00
  25400.00    378.16      0.00     10.00      0.00
  25450.00    378.35      0.00     10.00      0.00
  25500.00    378.54      0.00     10.00      0.00
  25550.00    378.73      0.00     10.00      0.00
  25600.00    378.92      0.00     10.00      0.00
  25650.00    379.11      0.00     10.00      0.00
  25700.00    379.30      0.00     10.00      0.00
  25750.00    379.49      0.00     10.00      0.00
  25800.00    379.68      0.00     10.00      0.00
  25850.00    379.87      0.00     10.00      0.00
  25900.00    380.06      0.00     10.00      0.00
  25950.00    380.26      0.00     10.00      0.00
  26000.00    380.45      0.00     10.00      0.00
  26050.00    380.64      0.00     10.00      0.00
  26100.00    380.83      0.00     10.00      0.00
  26150.00    381.02      0.00     10.00      0.00
  26200.00    381.21      0.00     10.00      0.00
  26250.00    381.41      0.00     10.00      0.00
  26300.00    381.60      0.00     10.00      0.00
  26350.00    381.79      0.00     10.00      0.00
  26400.00    381.98      0.00     10.00      0.00
  26450.00    382.17      0.00     10.00      0.00
  26500.00    382.37      0.00     10.00      0.00
  26550.00    382.56      0.00     10.00      0.00
  26600.00    382.75      0.00     10.00      0.00
  26650.00    382.94      0.00     10.00      0.00
  26700.00    383.14      0.00     10.00      0.00
  26750.00    383.33      0.00     10.00      0.00
  26800.00    383.52      0.00     10.00      0.00
  26850.00    383.72      0.00     10.00      0.00
  26900.00    383.91      0.00     10.00      0.00
  26950.00    384.10      0.00     10.00      0.00
  27000.00    384.30      0.00     10.00      0.00
  27050.00    384.49      0.00     10.00      0.00
  27100.00    384.68      0.00     10.00      0.00
  27150.00    384.88      0.00     10.00      0.00
  27200.00    385.07      0.00     10.00      0.00
  27250.00    385.26      0.00     10.00      0.00
  27300.00    385.46      0.00     10.00      0.00
  27350.00    385.65      0.00     10.00      0.00
  27400.00    385.85      0.00     10.00      0.00
  27450.00    386.04      0.00     10.00      0.00
  27500.00    386.23      0.00     10.00      0.00
  27550.00    386.43      0.00     10.00      0.00
  27600.00    386.62      0.00     10.00      0.00
  27650.00    386.82      0.00     10.00      0.00
  27700.00    387.01      0.00     10.00      0.00
  27750.00    387.21      0.00     10.00      0.00
  27800.00    387.40      0.00     10.00      0.00
  27850.00    387.60      0.00     10.00      0.00
  27900.00    387.79      0.00     10.00      0.00
  27950.00    387.99      0.00     10.00      0.00
  28000.00    388.18      0.00     10.00      0.00
  28050.00    388.38      0.00     10.00      0.00
  28100.00    388.57      0.00     10.00      0.00
  28150.00    388.77      0.00     10.00      0.00
  28200.00    388.97      0.00     10.00      0.00
  28250.00    389.16      0.00     10.00      0.00
  28300.00    389.36      0.00     10.00      0.00
  28350.00    389.55      0.00     10.00      0.00
  28400.00    389.75      0.00     10.00      0.00
  28450.00    389.95      0.00     10.00      0.00
  28500.00    390.14      0.00     10.00      0.00
  28550.00    390.34      0.00     10.00      0.00
  28600.00    390.54      0.00     10.00      0.00
  28650.00    390.73      0.00     10.00      0.00
  28700.00    390.93      0.00     10.00      0.00
  28750.00    391.13      0.00     10.00      0.00
  28800.00    391.32      0.00     10.00      0.00
  28850.00    391.52      0.00     10.00      0.00
  28900.00    391.72      0.00     10.00      0.00
  28950.00    391.91      0.00     10.00      0.00
  29000.00    392.11      0.00     10.00      0.00
  29050.00    392.31      0.00     10.00      0.00
  29100.00    392.51      0.00     10.00      0.00
  29150.00    392.70      0.00     10.00      0.00
  29200.00    392.90      0.00     10.00      0.00
  29250.00    393.10      0.00     10.00      0.00
  29300.00    393.30      0.00     10.00      0.00