   1000.00    298.00     16.13
      0.00    298.00     16.13    -3.00      0.00
     50.00    298.30     16.03    -3.00      0.00
    100.00    298.59     15.94    -3.00      0.00
    150.00    298.89     15.84    -3.00      0.00
    200.00    299.19     15.75    -3.00      0.00
    250.00    299.49     15.65    -3.00      0.00
    300.00    299.79     15.56    -3.00      0.00
    350.00    300.08     15.47    -3.00      0.00
    400.00    300.38     15.37    -3.00      0.00
    450.00    300.68     15.28    -3.00      0.00
    500.00    300.98     15.19    -3.00      0.00
    550.00    301.28     15.09    -3.00      0.00
    600.00    301.58     15.00    -3.00      0.00
    650.00    301.88     14.90    -3.00      0.00
    700.00    302.18     14.81    -3.00      0.00
    750.00    302.47     14.72    -3.00      0.00
    800.00    302.77     14.62    -3.00      0.00
    850.00    303.07     14.53    -3.00      0.00
    900.00    303.37     14.44    -3.00      0.00
    950.00    303.67     14.35    -3.00      0.00
   1000.00    303.97     14.25    -3.00      0.00
   1050.00    304.27     14.16    -3.00      0.00
   1100.00    304.58     14.07    -3.00      0.00
   1150.00    304.88     13.97    -3.00      0.00
   1200.00    305.18     13.88    -3.00      0.00
   1250.00    305.48     13.79    -3.00      0.00
   1300.00    305.78     13.70    -3.00      0.00
   1350.00    306.08     13.60    -3.00      0.00
   1400.00    306.38     13.51    -3.00      0.00
   1450.00    306.68     13.42    -3.00      0.00
   1500.00    306.98     13.33    -3.00      0.00
   1550.00    307.29     13.24    -3.00      0.00
   1600.00    307.59     13.15    -3.00      0.00
   1650.00    307.89     13.05    -3.00      0.00
   1700.00    308.19     12.96    -3.00      0.00
   1750.00    308.49     12.87    -3.00      0.00
   1800.00    308.79     12.78    -3.00      0.00
   1850.00    309.10     12.69    -3.00      0.00
   1900.00    309.40     12.60    -3.00      0.00
   1950.00    309.70     12.51    -3.00      0.00
   2000.00    310.00     12.42    -3.00      0.00
   2050.00    310.30     12.33    -3.00      0.00
   2100.00    310.61     12.24    -3.00      0.00
   2150.00    310.91     12.15    -3.00      0.00
   2200.00    311.21     12.06    -3.00      0.00
   2250.00    311.51     11.96    -3.00      0.00
   2300.00    311.82     11.87    -3.00      0.00
   2350.00    312.12     11.79    -3.00      0.00
   2400.00    312.42     11.70    -3.00      0.00
   2450.00    312.72     11.61    -3.00      0.00
   2500.00    313.03     11.52    -3.00      0.00
   2550.00    313.33     11.43    -3.00      0.00
   2600.00    313.63     11.34    -3.00      0.00
   2650.00    313.93     11.25    -3.00      0.00
   2700.00    314.23     11.16    -3.00      0.00
   2750.00    314.54     11.07    -3.00      0.00
   2800.00    314.84     10.98    -3.00      0.00
   2850.00    315.14     10.89    -3.00      0.00
   2900.00    315.44     10.81    -3.00      0.00
   2950.00    315.75     10.72    -3.00      0.00
   3000.00    316.05     10.63    -3.00      0.00
   3050.00    316.35     10.54    -3.00      0.00
   3100.00    316.65     10.45    -3.00      0.00
   3150.00    316.95     10.37    -3.00      0.00
   3200.00    317.25     10.28    -3.00      0.00
   3250.00    317.56     10.19    -3.00      0.00
   3300.00    317.86     10.11    -3.00      0.00
   3350.00    318.16     10.02    -3.00      0.00
   3400.00    318.46      9.93    -3.00      0.00
   3450.00    318.76      9.85    -3.00      0.00
   3500.00    319.06      9.76    -3.00      0.00
   3550.00    319.36      9.67    -3.00      0.00
   3600.00    319.66      9.59    -3.00      0.00
   3650.00    319.96      9.50    -3.00      0.00
   3700.00    320.26      9.42    -3.00      0.00
   3750.00    320.56      9.33    -3.00      0.00
   3800.00    320.86      9.25    -3.00      0.00
   3850.00    321.16      9.16    -3.00      0.00
   3900.00    321.46      9.08    -3.00      0.00
   3950.00    321.76      8.99    -3.00      0.00
   4000.00    322.06      8.91    -3.00      0.00
   4050.00    322.36      8.82    -3.00      0.00
   4100.00    322.66      8.74    -3.00      0.00
   4150.00    322.96      8.65    -3.00      0.00
   4200.00    323.26      8.57    -3.00      0.00
   4250.00    323.55      8.49    -3.00      0.00
   4300.00    323.85      8.40    -3.00      0.00
   4350.00    324.15      8.32    -3.00      0.00
   4400.00    324.44      8.24    -3.00      0.00
   4450.00    324.74      8.16    -3.00      0.00
   4500.00    325.04      8.07    -3.00      0.00
   4550.00    325.33      7.99    -3.00      0.00
   4600.00    325.63      7.91    -3.00      0.00
   4650.00    325.92      7.83    -3.00      0.00
   4700.00    326.22      7.75    -3.00      0.00
   4750.00    326.51      7.66    -3.00      0.00
   4800.00    326.81      7.58    -3.00      0.00
   4850.00    327.10      7.50    -3.00      0.00
   4900.00    327.39      7.42    -3.00      0.00
   4950.00    327.69      7.34    -3.00      0.00
   5000.00    327.98      7.26    -3.00      0.00
   5050.00    328.27      7.18    -3.00      0.00
   5100.00    328.56      7.10    -3.00      0.00
   5150.00    328.85      7.02    -3.00      0.00
   5200.00    329.14      6.94    -3.00      0.00
   5250.00    329.43      6.87    -3.00      0.00
   5300.00    329.72      6.79    -3.00      0.00
   5350.00    330.01      6.71    -3.00      0.00
   5400.00    330.30      6.63    -3.00      0.00
   5450.00    330.58      6.55    -3.00      0.00
   5500.00    330.87      6.48    -3.00      0.00
   5550.00    331.16      6.40    -3.00      0.00
   5600.00    331.44      6.32    -3.00      0.00
   5650.00    331.73      6.25    -3.00      0.00
   5700.00    332.01      6.17    -3.00      0.00
   5750.00    332.30      6.09    -3.00      0.00
   5800.00    332.58      6.02    -3.00      0.00
   5850.00    332.86      5.94    -3.00      0.00
   5900.00    333.14      5.87    -3.00      0.00
   5950.00    333.42      5.79    -3.00      0.00
   6000.00    333.70      5.72    -3.00      0.00
   6050.00    333.98      5.65    -3.00      0.00
   6100.00    334.26      5.57    -3.00      0.00
   6150.00    334.54      5.50    -3.00      0.00
   6200.00    334.82      5.43    -3.00      0.00
   6250.00    335.09      5.35    -3.00      0.00
   6300.00    335.37      5.28    -3.00      0.00
   6350.00    335.64      5.21    -3.00      0.00
   6400.00    335.91      5.14    -3.00      0.00
   6450.00    336.19      5.07    -3.00      0.00
   6500.00    336.46      5.00    -3.00      0.00
   6550.00    336.73      4.93    -3.00      0.00
   6600.00    337.00      4.86    -3.00      0.00
   6650.00    337.27      4.79    -3.00      0.00
   6700.00    337.53      4.72    -3.00      0.00
   6750.00    337.80      4.65    -3.00      0.00
   6800.00    338.06      4.58    -3.00      0.00
   6850.00    338.33      4.51    -3.00      0.00
   6900.00    338.59      4.44    -3.00      0.00
   6950.00    338.85      4.38    -3.00      0.00
   7000.00    339.11      4.31    -3.00      0.00
   7050.00    339.37      4.24    -3.00      0.00
   7100.00    339.63      4.18    -3.00      0.00
   7150.00    339.89      4.11    -3.00      0.00
   7200.00    340.14      4.05    -3.00      0.00
   7250.00    340.40      3.98    -3.00      0.00
   7300.00    340.65      3.92    -3.00      0.00
   7350.00    340.90      3.85    -3.00      0.00
   7400.00    341.16      3.79    -3.00      0.00
   7450.00    341.40      3.73    -3.00      0.00
   7500.00    341.65      3.66    -3.00      0.00
   7550.00    341.90      3.60    -3.00      0.00
   7600.00    342.14      3.54    -3.00      0.00
   7650.00    342.39      3.48    -3.00      0.00
   7700.00    342.63      3.42    -3.00      0.00
   7750.00    342.87      3.36    -3.00      0.00
   7800.00    343.11      3.30    -3.00      0.00
   7850.00    343.35      3.24    -3.00      0.00
   7900.00    343.58      3.18    -3.00      0.00
   7950.00    343.82      3.12    -3.00      0.00
   8000.00    344.05      3.06    -3.00      0.00
   8050.00    344.28      3.01    -3.00      0.00
   8100.00    344.51      2.95    -3.00      0.00
   8150.00    344.74      2.89    -3.00      0.00
   8200.00    344.96      2.84    -3.00      0.00
   8250.00    345.19      2.78    -3.00      0.00
   8300.00    345.41      2.73    -3.00      0.00
   8350.00    345.63      2.67    -3.00      0.00
   8400.00    345.85      2.62    -3.00      0.00
   8450.00    346.06      2.57    -3.00      0.00
   8500.00    346.28      2.51    -3.00      0.00
   8550.00    346.49      2.46    -3.00      0.00
   8600.00    346.70      2.41    -3.00      0.00
   8650.00    346.91      2.36    -3.00      0.00
   8700.00    347.12      2.31    -3.00      0.00
   8750.00    347.32      2.26    -3.00      0.00
   8800.00    347.52      2.21    -3.00      0.00
   8850.00    347.73      2.16    -3.00      0.00
   8900.00    347.92      2.11    -3.00      0.00
   8950.00    348.12      2.07    -3.00      0.00
   9000.00    348.32      2.02    -3.00      0.00
   9050.00    348.51      1.97    -3.00      0.00
   9100.00    348.70      1.93    -3.00      0.00
   9150.00    348.89      1.88    -3.00      0.00
   9200.00    349.07      1.84    -3.00      0.00
   9250.00    349.26      1.79    -3.00      0.00
   9300.00    349.44      1.75    -3.00      0.00
   9350.00    349.62      1.71    -3.00      0.00
   9400.00    349.79      1.67    -3.00      0.00
   9450.00    349.97      1.62    -3.00      0.00
   9500.00    350.14      1.58    -3.00      0.00
   9550.00    350.31      1.54    -3.00      0.00
   9600.00    350.48      1.50    -3.00      0.00
   9650.00    350.64      1.46    -3.00      0.00
   9700.00    350.80      1.43    -3.00      0.00
   9750.00    350.96      1.39    -3.00      0.00
   9800.00    351.12      1.35    -3.00      0.00
   9850.00    351.28      1.31    -3.00      0.00
   9900.00    351.43      1.28    -3.00      0.00
   9950.00    351.58      1.24    -3.00      0.00
  10000.00    351.73      1.21    -3.00      0.00
  10050.00    351.87      1.18    -3.00      0.00
  10100.00    352.02      1.14    -3.00      0.00
  10150.00    352.16      1.11    -3.00      0.00
  10200.00    352.30      1.08    -3.00      0.00
  10250.00    352.43      1.05    -3.00      0.00
  10300.00    352.57      1.01    -3.00      0.00
  10350.00    352.70      0.98    -3.00      0.00
  10400.00    352.83      0.95    -3.00      0.00
  10450.00    352.95      0.93    -3.00      0.00
  10500.00    353.08      0.90    -3.00      0.00
  10550.00    353.20      0.87    -3.00      0.00
  10600.00    353.32      0.84    -3.00      0.00
  10650.00    353.43      0.82    -3.00      0.00
  10700.00    353.55      0.79    -3.00      0.00
  10750.00    353.66      0.76    -3.00      0.00
  10800.00    353.77      0.74    -3.00      0.00
  10850.00    353.87      0.72    -3.00      0.00
  10900.00    353.98      0.69    -3.00      0.00
  10950.00    354.08      0.67    -3.00      0.00
  11000.00    354.18      0.65    -3.00      0.00
  11050.00    354.28      0.62    -3.00      0.00
  11100.00    354.37      0.60    -3.00      0.00
  11150.00    354.46      0.58    -3.00      0.00
  11200.00    354.56      0.56    -3.00      0.00
  11250.00    354.64      0.54    -3.00      0.00
  11300.00    354.73      0.52    -3.00      0.00
  11350.00    354.81      0.50    -3.00      0.00
  11400.00    354.89      0.48    -3.00      0.00
  11450.00    354.97      0.47    -3.00      0.00
  11500.00    355.05      0.45    -3.00      0.00
  11550.00    355.13      0.43    -3.00      0.00
  11600.00    355.20      0.42    -3.00      0.00
  11650.00    355.27      0.40    -3.00      0.00
  11700.00    355.34      0.39    -3.00      0.00
  11750.00    355.41      0.37    -3.00      0.00
  11800.00    355.47      0.36    -3.00      0.00
  11850.00    355.54      0.34    -3.00      0.00
  11900.00    355.60      0.33    -3.00      0.00
  11950.00    355.66      0.32    -3.00      0.00
  12000.00    355.71      0.30    -3.00      0.00
  12050.00    355.77      0.29    -3.00      0.00
  12100.00    355.82      0.28    -3.00      0.00
  12150.00    355.88      0.27    -3.00      0.00
  12200.00    355.93      0.26    -3.00      0.00
  12250.00    355.98      0.25    -3.00      0.00
  12300.00    356.03      0.24    -3.00      0.00
  12350.00    356.07      0.23    -3.00      0.00
  12400.00    356.12      0.22    -3.00      0.00
  12450.00    356.16      0.21    -3.00      0.00
  12500.00    356.20      0.20    -3.00      0.00
  12550.00    356.24      0.19    -3.00      0.00
  12600.00    356.28      0.18    -3.00      0.00
  12650.00    356.32      0.17    -3.00      0.00
  12700.00    356.35      0.17    -3.00      0.00
  12750.00    356.39      0.16    -3.00      0.00
  12800.00    356.42      0.15    -3.00      0.00
  12850.00    356.45      0.14    -3.00      0.00
  12900.00    356.48      0.14    -3.00      0.00
  12950.00    356.51      0.13    -3.00      0.00
  13000.00    356.54      0.12    -3.00      0.00
  13050.00    356.57      0.12    -3.00      0.00
  13100.00    356.59      0.11    -3.00      0.00
  13150.00    356.62      0.11    -3.00      0.00
  13200.00    356.64      0.10    -3.00      0.00
  13250.00    356.67      0.10    -3.00      0.00
  13300.00    356.69      0.09    -3.00      0.00
  13350.00    356.71      0.09    -3.00      0.00
  13400.00    356.73      0.08    -3.00      0.00
  13450.00    356.75      0.08    -3.00      0.00
  13500.00    356.77      0.08    -3.00      0.00
  13550.00    356.79      0.07    -3.00      0.00
  13600.00    356.81      0.07    -3.00      0.00
  13650.00    356.82      0.06    -3.00      0.00
  13700.00    356.84      0.06    -3.00      0.00
  13750.00    356.85      0.06    -3.00      0.00
  13800.00    356.87      0.06    -3.00      0.00
  13850.00    356.88      0.05    -3.00      0.00
  13900.00    356.90      0.05    -3.00      0.00
  13950.00    356.91      0.05    -3.00      0.00
  14000.00    356.92      0.04    -3.00      0.00
  14050.00    356.93      0.04    -3.00      0.00
  14100.00    356.94      0.04    -3.00      0.00
  14150.00    356.95      0.04    -3.00      0.00
  14200.00    356.96      0.04    -3.00      0.00
  14250.00    356.97      0.03    -3.00      0.00
  14300.00    356.98      0.03    -3.00      0.00
  14350.00    356.99      0.03    -3.00      0.00
  14400.00    357.00      0.03    -3.00      0.00
  14450.00    357.01      0.03    -3.00      0.00
  14500.00    357.02      0.03    -3.00      0.00
  14550.00    357.02      0.02    -3.00      0.00
  14600.00    357.03      0.02    -3.00      0.00
  14650.00    357.04      0.02    -3.00      0.00
  14700.00    357.04      0.02    -3.00      0.00
  14750.00    357.05      0.02    -3.00      0.00
  14800.00    357.05      0.02    -3.00      0.00
  14850.00    357.06      0.02    -3.00      0.00
  14900.00    357.06      0.02    -3.00      0.00
  14950.00    357.07      0.01    -3.00      0.00
  15000.00    357.07      0.01    -3.00      0.00
  15050.00    357.08      0.01    -3.00      0.00
  15100.00    357.08      0.01    -3.00      0.00
  15150.00    357.08      0.01    -3.00      0.00
  15200.00    357.09      0.01    -3.00      0.00
  15250.00    357.09      0.01    -3.00      0.00
  15300.00    357.09      0.01    -3.00      0.00
  15350.00    357.10      0.01    -3.00      0.00
  15400.00    357.10      0.01    -3.00      0.00
  15450.00    357.10      0.01    -3.00      0.00
  15500.00    357.11      0.01    -3.00      0.00
  15550.00    357.11      0.01    -3.00      0.00
  15600.00    357.11      0.01    -3.00      0.00
  15650.00    357.11      0.01    -3.00      0.00
  15700.00    357.11      0.01    -3.00      0.00
  15750.00    357.12      0.01    -3.00      0.00
  15800.00    357.12      0.00    -3.00      0.00
  15850.00    357.12      0.00    -3.00      0.00
  15900.00    357.12      0.00    -3.00      0.00
  15950.00    357.12      0.00    -3.00      0.00
  16000.00    357.12      0.00    -3.00      0.00
  16050.00    357.13      0.00    -3.00      0.00
  16100.00    357.13      0.00    -3.00      0.00
  16150.00    357.13      0.00    -3.00      0.00
  16200.00    357.13      0.00    -3.00      0.00
  16250.00    357.13      0.00    -3.00      0.00
  16300.00    357.13      0.00    -3.00      0.00
  16350.00    357.13      0.00    -3.00      0.00
  16400.00    357.13      0.00    -3.00      0.00
  16450.00    357.13      0.00    -3.00      0.00
  16500.00    357.13      0.00    -3.00      0.00
  16550.00    357.13      0.00    -3.00      0.00
  16600.00    357.14      0.00    -3.00      0.00
  16650.00    357.14      0.00    -3.00      0.00
  16700.00    357.14      0.00    -3.00      0.00
  16750.00    357.14      0.00    -3.00      0.00
  16800.00    357.14      0.00    -3.00      0.00
  16850.00    357.14      0.00    -3.00      0.00
  16900.00    357.14      0.00    -3.00      0.00
  16950.00    357.14      0.00    -3.00      0.00
  17000.00    357.14      0.00    -3.00      0.00
  17050.00    357.14      0.00    -3.00      0.00
  17100.00    357.14      0.00    -3.00      0.00
  17150.00    357.14      0.00    -3.00      0.00
  17200.00    357.14      0.00    -3.00      0.00
  17250.00    357.14      0.00    -3.00      0.00
  17300.00    357.14      0.00    -3.00      0.00
  17350.00    357.14      0.00    -3.00      0.00
  17400.00    357.14      0.00    -3.00      0.00
  17450.00    357.14      0.00    -3.00      0.00
  17500.00    357.14      0.00    -3.00      0.00
  17550.00    357.14      0.00    -3.00      0.00
  17600.00    357.14      0.00    -3.00      0.00
  17650.00    357.14      0.00    -3.00      0.00
  17700.00    357.14      0.00    -3.00      0.00
  17750.00    357.14      0.00    -3.00      0.00
  17800.00    357.14      0.00    -3.00      0.00
  17850.00    357.14      0.00    -3.00      0.00
  17900.00    357.14      0.00    -3.00      0.00
  17950.00    357.14      0.00    -3.00      0.00
  18000.00    357.14      0.00    -3.00      0.00
  18050.00    357.14      0.00    -3.00      0.00
  18100.00    357.14      0.00    -3.00      0.00
  18150.00    357.14      0.00    -3.00      0.00
  18200.00    357.14      0.00    -3.00      0.00
  18250.00    357.14      0.00    -3.00      0.00
  18300.00    357.14      0.00    -3.00      0.00
  18350.00    357.14      0.00    -3.00      0.00
  18400.00    357.14      0.00    -3.00      0.00
  18450.00    357.14      0.00    -3.00      0.00
  18500.00    357.14      0.00    -3.00      0.00
  18550.00    357.14      0.00    -3.00      0.00
  18600.00    357.14      0.00    -3.00      0.00
  18650.00    357.14      0.00    -3.00      0.00
  18700.00    357.14      0.00    -3.00      0.00
  18750.00    357.14      0.00    -3.00      0.00
  18800.00    357.14      0.00    -3.00      0.00
  18850.00    357.14      0.00    -3.00      0.00
  18900.00    357.14      0.00    -3.00      0.00
  18950.00    357.14      0.00    -3.00      0.00
  19000.00    357.14      0.00    -3.00      0.00
  19050.00    357.14      0.00    -3.00      0.00
  19100.00    357.14      0.00    -3.00      0.00
  19150.00    357.14      0.00    -3.00      0.00
  19200.00    357.14      0.00    -3.00      0.00
  19250.00    357.14      0.00    -3.00      0.00
  19300.00    357.14      0.00    -3.00      0.00
  19350.00    357.14      0.00    -3.00      0.00
  19400.00    357.14      0.00    -3.00      0.00
  19450.00    357.14      0.00    -3.00      0.00
  19500.00    357.14      0.00    -3.00      0.00
  19550.00    357.14      0.00    -3.00      0.00
  19600.00    357.14      0.00    -3.00      0.00
  19650.00    357.14      0.00    -3.00      0.00
  19700.00    357.14      0.00    -3.00      0.00
  19750.00    357.14      0.00    -3.00      0.00
  19800.00    357.14      0.00    -3.00      0.00
  19850.00    357.14      0.00    -3.00      0.00
  19900.00    357.14      0.00    -3.00      0.00
  19950.00    357.14      0.00    -3.00      0.00
  20000.00    357.14      0.00    -3.00      0.00
  20050.00    357.14      0.00    -3.00      0.00
  20100.00    357.14      0.00    -3.00      0.00
  20150.00    357.14      0.00    -3.00      0.00
  20200.00    357.14      0.00    -3.00      0.00
  20250.00    357.14      0.00    -3.00      0.00
  20300.00    357.14      0.00    -3.00      0.00
  20350.00    357.14      0.00    -3.00      0.00
  20400.00    357.14      0.00    -3.00      0.00
  20450.00    357.14      0.00    -3.00      0.00
  20500.00    357.14      0.00    -3.00      0.00
  20550.00    357.14      0.00    -3.00      0.00
  20600.00    357.14      0.00    -3.00      0.00
  20650.00    357.14      0.00    -3.00      0.00
  20700.00    357.14      0.00    -3.00      0.00
  20750.00    357.14      0.00    -3.00      0.00
  20800.00    357.14      0.00    -3.00      0.00
  20850.00    357.14      0.00    -3.00      0.00
  20900.00    357.14      0.00    -3.00      0.00
  20950.00    357.14      0.00    -3.00      0.00
  21000.00    357.14      0.00    -3.00      0.00
  21050.00    357.14      0.00    -3.00      0.00
  21100.00    357.14      0.00    -3.00      0.00
  21150.00    357.14      0.00    -3.00      0.00
  21200.00    357.14      0.00    -3.00      0.00
  21250.00    357.14      0.00    -3.00      0.00
  21300.00    357.14      0.00    -3.00      0.00
  21350.00    357.14      0.00    -3.00      0.00
  21400.00    357.14      0.00    -3.00      0.00
  21450.00    357.14      0.00    -3.00      0.00
  21500.00    357.14      0.00    -3.00      0.00
  21550.00    357.14      0.00    -3.00      0.00
  21600.00    357.14      0.00    -3.00      0.00
  21650.00    357.14      0.00    -3.00      0.00
  21700.00    357.14      0.00    -3.00      0.00
  21750.00    357.14      0.00    -3.00      0.00
  21800.00    357.14      0.00    -3.00      0.00
  21850.00    357.14      0.00    -3.00      0.00
  21900.00    357.14      0.00    -3.00      0.00
  21950.00    357.14      0.00    -3.00      0.00
  22000.00    357.14      0.00    -3.00      0.00
  22050.00    357.14      0.00    -3.00      0.00
  22100.00    357.14      0.00    -3.00      0.00
  22150.00    357.14      0.00    -3.00      0.00
  22200.00    357.14      0.00    -3.00      0.00
  22250.00    357.14      0.00    -3.00      0.00
  22300.00    357.14      0.00    -3.00      0.00
  22350.00    357.14      0.00    -3.00      0.00
  22400.00    357.14      0.00    -3.00      0.00
  22450.00    357.14      0.00    -3.00      0.00
  22500.00    357.14      0.00    -3.00      0.00
  22550.00    357.14      0.00    -3.00      0.00
  22600.00    357.14      0.00    -3.00      0.00
  22650.00    357.14      0.00    -3.00      0.00
  22700.00    357.14      0.00    -3.00      0.00
  22750.00    357.14      0.00    -3.00      0.00
  22800.00    357.14      0.00    -3.00      0.00
  22850.00    357.14      0.00    -3.00      0.00
  22900.00    357.14      0.00    -3.00      0.00
  22950.00    357.14      0.00    -3.00      0.00
  23000.00    357.14      0.00    -3.00      0.00
  23050.00    357.14      0.00    -3.00      0.00
  23100.00    357.14      0.00    -3.00      0.00
  23150.00    357.14      0.00    -3.00      0.00
  23200.00    357.14      0.00    -3.00      0.00
  23250.00    357.14      0.00    -3.00      0.00
  23300.00    357.14      0.00    -3.00      0.00
  23350.00    357.14      0.00    -3.00      0.00
  23400.00    357.14      0.00    -3.00      0.00
  23450.00    357.14      0.00    -3.00      0.00
  23500.00    357.14      0.00    -3.00      0.00
  23550.00    357.14      0.00    -3.00      0.00
  23600.00    357.14      0.00    -3.00      0.00
  23650.00    357.14      0.00    -3.00      0.00
  23700.00    357.14      0.00    -3.00      0.00
  23750.00    357.14      0.00    -3.00      0.00
  23800.00    357.14      0.00    -3.00      0.00
  23850.00    357.14      0.00    -3.00      0.00
  23900.00    357.14      0.00    -3.00      0.00
  23950.00    357.14      0.00    -3.00      0.00
  24000.00    357.14      0.00    -3.00      0.00
  24050.00    357.14      0.00    -3.00      0.00
  24100.00    357.14      0.00    -3.00      0.00
  24150.00    357.14      0.00    -3.00      0.00
  24200.00    357.14      0.00    -3.00      0.00
  24250.00    357.14      0.00    -3.00      0.00
  24300.00    357.14      0.00    -3.00      0.00
  24350.00    357.14      0.00    -3.00      0.00
  24400.00    357.14      0.00    -3.00      0.00
  24450.00    357.14      0.00    -3.00      0.00
  24500.00    357.14      0.00    -3.00      0.00
  24550.00    357.14      0.00    -3.00      0.00
  24600.00    357.14      0.00    -3.00      0.00
  24650.00    357.14      0.00    -3.00      0.00
  24700.00    357.14      0.00    -3.00      0.00
  24750.00    357.14      0.00    -3.00      0.00
  24800.00    357.14      0.00    -3.00      0.00
  24850.00    357.14      0.00    -3.00      0.00
  24900.00    357.14      0.00    -3.00      0.00
  24950.00    357.14      0.00    -3.00      0.00
  25000.00    357.14      0.00    -3.00      0.00
  25050.00    357.14      0.00    -3.00      0.00
  25100.00    357.14      0.00    -3.00      0.00
  25150.00    357.14      0.00    -3.00      0.00
  25200.00    357.14      0.00    -3.00      0.00
  25250.00    357.14      0.00    -3.00      0.00
  25300.00    357.14      0.00    -3.00      0.00
  25350.00    357.14      0.00    -3.00      0.00
  25400.00    357.14      0.00    -3.00      0.00
  25450.00    357.14      0.00    -3.00      0.00
  25500.00    357.14      0.00    -3.00      0.00
  25550.00    357.14      0.00    -3.00      0.00
  25600.00    357.14      0.00    -3.00      0.00
  25650.00    357.14      0.00    -3.00      0.00
  25700.00    357.14      0.00    -3.00      0.00
  25750.00    357.14      0.00    -3.00      0.00
  25800.00    357.14      0.00    -3.00      0.00
  25850.00    357.14      0.00    -3.00      0.00
  25900.00    357.14      0.00    -3.00      0.00
  25950.00    357.14      0.00    -3.00      0.00
  26000.00    357.14      0.00    -3.00      0.00
  26050.00    357.14      0.00    -3.00      0.00
  26100.00    357.14      0.00    -3.00      0.00
  26150.00    357.14      0.00    -3.00      0.00
  26200.00    357.14      0.00    -3.00      0.00
  26250.00    357.14      0.00    -3.00      0.00
  26300.00    357.14      0.00    -3.00      0.00
  26350.00    357.14      0.00    -3.00      0.00
  26400.00    357.14      0.00    -3.00      0.00
  26450.00    357.14      0.00    -3.00      0.00
  26500.00    357.14      0.00    -3.00      0.00
  26550.00    357.14      0.00    -3.00      0.00
  26600.00    357.14      0.00    -3.00      0.00
  26650.00    357.14      0.00    -3.00      0.00
  26700.00    357.14      0.00    -3.00      0.00
  26750.00    357.14      0.00    -3.00      0.00
  26800.00    357.14      0.00    -3.00      0.00
  26850.00    357.14      0.00    -3.00      0.00
  26900.00    357.14      0.00    -3.00      0.00
  26950.00    357.14      0.00    -3.00      0.00
  27000.00    357.14      0.00    -3.00      0.00
  27050.00    357.14      0.00    -3.00      0.00
  27100.00    357.14      0.00    -3.00      0.00
  27150.00    357.14      0.00    -3.00      0.00
  27200.00    357.14      0.00    -3.00      0.00
  27250.00    357.14      0.00    -3.00      0.00
  27300.00    357.14      0.00    -3.00      0.00
  27350.00    357.14      0.00    -3.00      0.00
  27400.00    357.14      0.00    -3.00      0.00
  27450.00    357.14      0.00    -3.00      0.00
  27500.00    357.14      0.00    -3.00      0.00
  27550.00    357.14      0.00    -3.00      0.00
  27600.00    357.14      0.00    -3.00      0.00
  27650.00    357.14      0.00    -3.00      0.00
  27700.00    357.14      0.00    -3.00      0.00
  27750.00    357.14      0.00    -3.00      0.00
  27800.00    357.14      0.00    -3.00      0.00
  27850.00    357.14      0.00    -3.00      0.00
  27900.00    357.14      0.00    -3.00      0.00
  27950.00    357.14      0.00    -3.00      0.00
  28000.00    357.14      0.00    -3.00      0.00
  28050.00    357.14      0.00    -3.00      0.00
  28100.00    357.14      0.00    -3.00      0.00
  28150.00    357.14      0.00    -3.00      0.00
  28200.00    357.14      0.00    -3.00      0.00
  28250.00    357.14      0.00    -3.00      0.00
  28300.00    357.14      0.00    -3.00      0.00
  28350.00    357.14      0.00    -3.00      0.00
  28400.00    357.14      0.00    -3.00      0.00
  28450.00    357.14      0.00    -3.00      0.00
  28500.00    357.14      0.00    -3.00      0.00
  28550.00    357.14      0.00    -3.00      0.00
  28600.00    357.14      0.00    -3.00      0.00
  28650.00    357.14      0.00    -3.00      0.00
  28700.00    357.14      0.00    -3.00      0.00
  28750.00    357.14      0.00    -3.00      0.00
  28800.00    357.14      0.00    -3.00      0.00
  28850.00    357.14      0.00    -3.00      0.00
  28900.00    357.14      0.00    -3.00      0.00
  28950.00    357.14      0.00    -3.00      0.00
  29000.00    357.14      0.00    -3.00      0.00
  29050.00    357.14      0.00    -3.00      0.00
  29100.00    357.14      0.00    -3.00      0.00
  29150.00    357.14      0.00    -3.00      0.00
  29200.00    357.14      0.00    -3.00      0.00
  29250.00    357.14      0.00    -3.00      0.00
  29300.00    357.14      0.00    -3.00      0.00
  29350.00    357.14      0.00    -3.00      0.00
  29400.00    357.14      0.00    -3.00      0.00
  29450.00    357.14      0.00    -3.00      0.00
  29500.00    357.14      0.00    -3.00      0.00
  29550.00    357.14      0.00    -3.00      0.00
  29600.00    357.14      0.00    -3.00      0.00
  29650.00    357.14      0.00    -3.00      0.00
  29700.00    357.14      0.00    -3.00      0.00
  29750.00    357.14      0.00    -3.00      0.00
  29800.00    357.14      0.00    -3.00      0.00
  29850.00    357.14      0.00    -3.00      0.00
  29900.00    357.14      0.00    -3.00      0.00