   1000.00    301.00     19.38
      0.00    301.00     19.38    -10.00      0.00
     50.00    301.31     19.28    -10.00      0.00
    100.00    301.62     19.18    -10.00      0.00
    150.00    301.92     19.08    -10.00      0.00
    200.00    302.23     18.99    -10.00      0.00
    250.00    302.54     18.89    -10.00      0.00
    300.00    302.85     18.79    -10.00      0.00
    350.00    303.16     18.69    -10.00      0.00
    400.00    303.47     18.60    -10.00      0.00
    450.00    303.78     18.50    -10.00      0.00
    500.00    304.09     18.40    -10.00      0.00
    550.00    304.40     18.30    -10.00      0.00
    600.00    304.71     18.21    -10.00      0.00
    650.00    305.02     18.11    -10.00      0.00
    700.00    305.33     18.01    -10.00      0.00
    750.00    305.65     17.92    -10.00      0.00
    800.00    305.96     17.82    -10.00      0.00
    850.00    306.27     17.72    -10.00      0.00
    900.00    306.58     17.62    -10.00      0.00
    950.00    306.90     17.53    -10.00      0.00
   1000.00    307.21     17.43    -10.00      0.00
   1050.00    307.52     17.33    -10.00      0.00
   1100.00    307.83     17.24    -10.00      0.00
   1150.00    308.15     17.14    -10.00      0.00
   1200.00    308.46     17.05    -10.00      0.00
   1250.00    308.78     16.95    -10.00      0.00
   1300.00    309.09     16.85    -10.00      0.00
   1350.00    309.41     16.76    -10.00      0.00
   1400.00    309.72     16.66    -10.00      0.00
   1450.00    310.04     16.56    -10.00      0.00
   1500.00    310.35     16.47    -10.00      0.00
   1550.00    310.67     16.37    -10.00      0.00
   1600.00    310.98     16.28    -10.00      0.00
   1650.00    311.30     16.18    -10.00      0.00
   1700.00    311.61     16.08    -10.00      0.00
   1750.00    311.93     15.99    -10.00      0.00
   1800.00    312.25     15.89    -10.00      0.00
   1850.00    312.56     15.80    -10.00      0.00
   1900.00    312.88     15.70    -10.00      0.00
   1950.00    313.20     15.61    -10.00      0.00
   2000.00    313.52     15.51    -10.00      0.00
   2050.00    313.83     15.42    -10.00      0.00
   2100.00    314.15     15.32    -10.00      0.00
   2150.00    314.47     15.23    -10.00      0.00
   2200.00    314.79     15.13    -10.00      0.00
   2250.00    315.11     15.04    -10.00      0.00
   2300.00    315.42     14.94    -10.00      0.00
   2350.00    315.74     14.85    -10.00      0.00
   2400.00    316.06     14.75    -10.00      0.00
   2450.00    316.38     14.66    -10.00      0.00
   2500.00    316.70     14.56    -10.00      0.00
   2550.00    317.02     14.47    -10.00      0.00
   2600.00    317.34     14.38    -10.00      0.00
   2650.00    317.66     14.28    -10.00      0.00
   2700.00    317.98     14.19    -10.00      0.00
   2750.00    318.30     14.09    -10.00      0.00
   2800.00    318.62     14.00    -10.00      0.00
   2850.00    318.94     13.91    -10.00      0.00
   2900.00    319.26     13.81    -10.00      0.00
   2950.00    319.58     13.72    -10.00      0.00
   3000.00    319.90     13.63    -10.00      0.00
   3050.00    320.22     13.53    -10.00      0.00
   3100.00    320.54     13.44    -10.00      0.00
   3150.00    320.86     13.35    -10.00      0.00
   3200.00    321.18     13.25    -10.00      0.00
   3250.00    321.50     13.16    -10.00      0.00
   3300.00    321.83     13.07    -10.00      0.00
   3350.00    322.15     12.98    -10.00      0.00
   3400.00    322.47     12.88    -10.00      0.00
   3450.00    322.79     12.79    -10.00      0.00
   3500.00    323.11     12.70    -10.00      0.00
   3550.00    323.43     12.61    -10.00      0.00
   3600.00    323.76     12.51    -10.00      0.00
   3650.00    324.08     12.42    -10.00      0.00
   3700.00    324.40     12.33    -10.00      0.00
   3750.00    324.72     12.24    -10.00      0.00
   3800.00    325.04     12.15    -10.00      0.00
   3850.00    325.37     12.06    -10.00      0.00
   3900.00    325.69     11.97    -10.00      0.00
   3950.00    326.01     11.87    -10.00      0.00
   4000.00    326.33     11.78    -10.00      0.00
   4050.00    326.65     11.69    -10.00      0.00
   4100.00    326.98     11.60    -10.00      0.00
   4150.00    327.30     11.51    -10.00      0.00
   4200.00    327.62     11.42    -10.00      0.00
   4250.00    327.94     11.33    -10.00      0.00
   4300.00    328.26     11.24    -10.00      0.00
   4350.00    328.59     11.15    -10.00      0.00
   4400.00    328.91     11.06    -10.00      0.00
   4450.00    329.23     10.97    -10.00      0.00
   4500.00    329.55     10.88    -10.00      0.00
   4550.00    329.87     10.79    -10.00      0.00
   4600.00    330.20     10.70    -10.00      0.00
   4650.00    330.52     10.61    -10.00      0.00
   4700.00    330.84     10.52    -10.00      0.00
   4750.00    331.16     10.44    -10.00      0.00
   4800.00    331.48     10.35    -10.00      0.00
   4850.00    331.80     10.26    -10.00      0.00
   4900.00    332.12     10.17    -10.00      0.00
   4950.00    332.45     10.08    -10.00      0.00
   5000.00    332.77      9.99    -10.00      0.00
   5050.00    333.09      9.91    -10.00      0.00
   5100.00    333.41      9.82    -10.00      0.00
   5150.00    333.73      9.73    -10.00      0.00
   5200.00    334.05      9.64    -10.00      0.00
   5250.00    334.37      9.56    -10.00      0.00
   5300.00    334.69      9.47    -10.00      0.00
   5350.00    335.01      9.38    -10.00      0.00
   5400.00    335.33      9.30    -10.00      0.00
   5450.00    335.65      9.21    -10.00      0.00
   5500.00    335.97      9.13    -10.00      0.00
   5550.00    336.29      9.04    -10.00      0.00
   5600.00    336.61      8.95    -10.00      0.00
   5650.00    336.93      8.87    -10.00      0.00
   5700.00    337.24      8.78    -10.00      0.00
   5750.00    337.56      8.70    -10.00      0.00
   5800.00    337.88      8.61    -10.00      0.00
   5850.00    338.20      8.53    -10.00      0.00
   5900.00    338.51      8.44    -10.00      0.00
   5950.00    338.83      8.36    -10.00      0.00
   6000.00    339.15      8.28    -10.00      0.00
   6050.00    339.46      8.19    -10.00      0.00
   6100.00    339.78      8.11    -10.00      0.00
   6150.00    340.10      8.03    -10.00      0.00
   6200.00    340.41      7.94    -10.00      0.00
   6250.00    340.72      7.86    -10.00      0.00
   6300.00    341.04      7.78    -10.00      0.00
   6350.00    341.35      7.69    -10.00      0.00
   6400.00    341.67      7.61    -10.00      0.00
   6450.00    341.98      7.53    -10.00      0.00
   6500.00    342.29      7.45    -10.00      0.00
   6550.00    342.60      7.37    -10.00      0.00
   6600.00    342.92      7.29    -10.00      0.00
   6650.00    343.23      7.21    -10.00      0.00
   6700.00    343.54      7.13    -10.00      0.00
   6750.00    343.85      7.04    -10.00      0.00
   6800.00    344.16      6.96    -10.00      0.00
   6850.00    344.47      6.88    -10.00      0.00
   6900.00    344.78      6.81    -10.00      0.00
   6950.00    345.08      6.73    -10.00      0.00
   7000.00    345.39      6.65    -10.00      0.00
   7050.00    345.70      6.57    -10.00      0.00
   7100.00    346.00      6.49    -10.00      0.00
   7150.00    346.31      6.41    -10.00      0.00
   7200.00    346.61      6.33    -10.00      0.00
   7250.00    346.92      6.26    -10.00      0.00
   7300.00    347.22      6.18    -10.00      0.00
   7350.00    347.52      6.10    -10.00      0.00
   7400.00    347.82      6.03    -10.00      0.00
   7450.00    348.13      5.95    -10.00      0.00
   7500.00    348.43      5.87    -10.00      0.00
   7550.00    348.73      5.80    -10.00      0.00
   7600.00    349.02      5.72    -10.00      0.00
   7650.00    349.32      5.65    -10.00      0.00
   7700.00    349.62      5.57    -10.00      0.00
   7750.00    349.92      5.50    -10.00      0.00
   7800.00    350.21      5.43    -10.00      0.00
   7850.00    350.50      5.35    -10.00      0.00
   7900.00    350.80      5.28    -10.00      0.00
   7950.00    351.09      5.21    -10.00      0.00
   8000.00    351.38      5.13    -10.00      0.00
   8050.00    351.67      5.06    -10.00      0.00
   8100.00    351.96      4.99    -10.00      0.00
   8150.00    352.25      4.92    -10.00      0.00
   8200.00    352.54      4.85    -10.00      0.00
   8250.00    352.82      4.78    -10.00      0.00
   8300.00    353.11      4.71    -10.00      0.00
   8350.00    353.39      4.64    -10.00      0.00
   8400.00    353.68      4.57    -10.00      0.00
   8450.00    353.96      4.50    -10.00      0.00
   8500.00    354.24      4.43    -10.00      0.00
   8550.00    354.52      4.36    -10.00      0.00
   8600.00    354.80      4.29    -10.00      0.00
   8650.00    355.07      4.23    -10.00      0.00
   8700.00    355.35      4.16    -10.00      0.00
   8750.00    355.62      4.09    -10.00      0.00
   8800.00    355.89      4.03    -10.00      0.00
   8850.00    356.17      3.96    -10.00      0.00
   8900.00    356.44      3.89    -10.00      0.00
   8950.00    356.70      3.83    -10.00      0.00
   9000.00    356.97      3.77    -10.00      0.00
   9050.00    357.24      3.70    -10.00      0.00
   9100.00    357.50      3.64    -10.00      0.00
   9150.00    357.76      3.58    -10.00      0.00
   9200.00    358.02      3.51    -10.00      0.00
   9250.00    358.28      3.45    -10.00      0.00
   9300.00    358.54      3.39    -10.00      0.00
   9350.00    358.80      3.33    -10.00      0.00
   9400.00    359.05      3.27    -10.00      0.00
   9450.00    359.30      3.21    -10.00      0.00
   9500.00    359.56      3.15    -10.00      0.00
   9550.00    359.80      3.09    -10.00      0.00
   9600.00    360.05      3.03    -10.00      0.00
   9650.00    360.30      2.97    -10.00      0.00
   9700.00    360.54      2.92    -10.00      0.00
   9750.00    360.78      2.86    -10.00      0.00
   9800.00    361.02      2.80    -10.00      0.00
   9850.00    361.26      2.75    -10.00      0.00
   9900.00    361.50      2.69    -10.00      0.00
   9950.00    361.73      2.64    -10.00      0.00
  10000.00    361.96      2.58    -10.00      0.00
  10050.00    362.19      2.53    -10.00      0.00
  10100.00    362.42      2.48    -10.00      0.00
  10150.00    362.65      2.42    -10.00      0.00
  10200.00    362.87      2.37    -10.00      0.00
  10250.00    363.09      2.32    -10.00      0.00
  10300.00    363.31      2.27    -10.00      0.00
  10350.00    363.53      2.22    -10.00      0.00
  10400.00    363.75      2.17    -10.00      0.00
  10450.00    363.96      2.12    -10.00      0.00
  10500.00    364.17      2.07    -10.00      0.00
  10550.00    364.38      2.03    -10.00      0.00
  10600.00    364.58      1.98    -10.00      0.00
  10650.00    364.79      1.93    -10.00      0.00
  10700.00    364.99      1.89    -10.00      0.00
  10750.00    365.19      1.84    -10.00      0.00
  10800.00    365.38      1.80    -10.00      0.00
  10850.00    365.58      1.75    -10.00      0.00
  10900.00    365.77      1.71    -10.00      0.00
  10950.00    365.96      1.67    -10.00      0.00
  11000.00    366.14      1.62    -10.00      0.00
  11050.00    366.33      1.58    -10.00      0.00
  11100.00    366.51      1.54    -10.00      0.00
  11150.00    366.69      1.50    -10.00      0.00
  11200.00    366.86      1.46    -10.00      0.00
  11250.00    367.04      1.42    -10.00      0.00
  11300.00    367.21      1.39    -10.00      0.00
  11350.00    367.38      1.35    -10.00      0.00
  11400.00    367.54      1.31    -10.00      0.00
  11450.00    367.71      1.27    -10.00      0.00
  11500.00    367.87      1.24    -10.00      0.00
  11550.00    368.03      1.20    -10.00      0.00
  11600.00    368.18      1.17    -10.00      0.00
  11650.00    368.34      1.14    -10.00      0.00
  11700.00    368.49      1.10    -10.00      0.00
  11750.00    368.63      1.07    -10.00      0.00
  11800.00    368.78      1.04    -10.00      0.00
  11850.00    368.92      1.01    -10.00      0.00
  11900.00    369.06      0.98    -10.00      0.00
  11950.00    369.20      0.95    -10.00      0.00
  12000.00    369.33      0.92    -10.00      0.00
  12050.00    369.46      0.89    -10.00      0.00
  12100.00    369.59      0.86    -10.00      0.00
  12150.00    369.72      0.83    -10.00      0.00
  12200.00    369.84      0.81    -10.00      0.00
  12250.00    369.96      0.78    -10.00      0.00
  12300.00    370.08      0.75    -10.00      0.00
  12350.00    370.19      0.73    -10.00      0.00
  12400.00    370.31      0.70    -10.00      0.00
  12450.00    370.42      0.68    -10.00      0.00
  12500.00    370.53      0.66    -10.00      0.00
  12550.00    370.63      0.63    -10.00      0.00
  12600.00    370.73      0.61    -10.00      0.00
  12650.00    370.83      0.59    -10.00      0.00
  12700.00    370.93      0.57    -10.00      0.00
  12750.00    371.03      0.55    -10.00      0.00
  12800.00    371.12      0.53    -10.00      0.00
  12850.00    371.21      0.51    -10.00      0.00
  12900.00    371.30      0.49    -10.00      0.00
  12950.00    371.39      0.47    -10.00      0.00
  13000.00    371.47      0.46    -10.00      0.00
  13050.00    371.55      0.44    -10.00      0.00
  13100.00    371.63      0.42    -10.00      0.00
  13150.00    371.71      0.41    -10.00      0.00
  13200.00    371.78      0.39    -10.00      0.00
  13250.00    371.85      0.37    -10.00      0.00
  13300.00    371.92      0.36    -10.00      0.00
  13350.00    371.99      0.35    -10.00      0.00
  13400.00    372.06      0.33    -10.00      0.00
  13450.00    372.12      0.32    -10.00      0.00
  13500.00    372.18      0.31    -10.00      0.00
  13550.00    372.24      0.29    -10.00      0.00
  13600.00    372.30      0.28    -10.00      0.00
  13650.00    372.36      0.27    -10.00      0.00
  13700.00    372.41      0.26    -10.00      0.00
  13750.00    372.47      0.25    -10.00      0.00
  13800.00    372.52      0.24    -10.00      0.00
  13850.00    372.57      0.23    -10.00      0.00
  13900.00    372.61      0.22    -10.00      0.00
  13950.00    372.66      0.21    -10.00      0.00
  14000.00    372.70      0.20    -10.00      0.00
  14050.00    372.75      0.19    -10.00      0.00
  14100.00    372.79      0.18    -10.00      0.00
  14150.00    372.83      0.17    -10.00      0.00
  14200.00    372.87      0.16    -10.00      0.00
  14250.00    372.90      0.16    -10.00      0.00
  14300.00    372.94      0.15    -10.00      0.00
  14350.00    372.97      0.14    -10.00      0.00
  14400.00    373.01      0.14    -10.00      0.00
  14450.00    373.04      0.13    -10.00      0.00
  14500.00    373.07      0.12    -10.00      0.00
  14550.00    373.10      0.12    -10.00      0.00
  14600.00    373.12      0.11    -10.00      0.00
  14650.00    373.15      0.11    -10.00      0.00
  14700.00    373.18      0.10    -10.00      0.00
  14750.00    373.20      0.10    -10.00      0.00
  14800.00    373.23      0.09    -10.00      0.00
  14850.00    373.25      0.09    -10.00      0.00
  14900.00    373.27      0.08    -10.00      0.00
  14950.00    373.29      0.08    -10.00      0.00
  15000.00    373.31      0.07    -10.00      0.00
  15050.00    373.33      0.07    -10.00      0.00
  15100.00    373.35      0.07    -10.00      0.00
  15150.00    373.37      0.06    -10.00      0.00
  15200.00    373.38      0.06    -10.00      0.00
  15250.00    373.40      0.06    -10.00      0.00
  15300.00    373.41      0.05    -10.00      0.00
  15350.00    373.43      0.05    -10.00      0.00
  15400.00    373.44      0.05    -10.00      0.00
  15450.00    373.46      0.05    -10.00      0.00
  15500.00    373.47      0.04    -10.00      0.00
  15550.00    373.48      0.04    -10.00      0.00
  15600.00    373.49      0.04    -10.00      0.00
  15650.00    373.50      0.04    -10.00      0.00
  15700.00    373.51      0.03    -10.00      0.00
  15750.00    373.52      0.03    -10.00      0.00
  15800.00    373.53      0.03    -10.00      0.00
  15850.00    373.54      0.03    -10.00      0.00
  15900.00    373.55      0.03    -10.00      0.00
  15950.00    373.56      0.03    -10.00      0.00
  16000.00    373.57      0.02    -10.00      0.00
  16050.00    373.57      0.02    -10.00      0.00
  16100.00    373.58      0.02    -10.00      0.00
  16150.00    373.59      0.02    -10.00      0.00
  16200.00    373.59      0.02    -10.00      0.00
  16250.00    373.60      0.02    -10.00      0.00
  16300.00    373.60      0.02    -10.00      0.00
  16350.00    373.61      0.02    -10.00      0.00
  16400.00    373.62      0.01    -10.00      0.00
  16450.00    373.62      0.01    -10.00      0.00
  16500.00    373.62      0.01    -10.00      0.00
  16550.00    373.63      0.01    -10.00      0.00
  16600.00    373.63      0.01    -10.00      0.00
  16650.00    373.64      0.01    -10.00      0.00
  16700.00    373.64      0.01    -10.00      0.00
  16750.00    373.64      0.01    -10.00      0.00
  16800.00    373.65      0.01    -10.00      0.00
  16850.00    373.65      0.01    -10.00      0.00
  16900.00    373.65      0.01    -10.00      0.00
  16950.00    373.66      0.01    -10.00      0.00
  17000.00    373.66      0.01    -10.00      0.00
  17050.00    373.66      0.01    -10.00      0.00
  17100.00    373.66      0.01    -10.00      0.00
  17150.00    373.66      0.01    -10.00      0.00
  17200.00    373.67      0.01    -10.00      0.00
  17250.00    373.67      0.00    -10.00      0.00
  17300.00    373.67      0.00    -10.00      0.00
  17350.00    373.67      0.00    -10.00      0.00
  17400.00    373.67      0.00    -10.00      0.00
  17450.00    373.67      0.00    -10.00      0.00
  17500.00    373.68      0.00    -10.00      0.00
  17550.00    373.68      0.00    -10.00      0.00
  17600.00    373.68      0.00    -10.00      0.00
  17650.00    373.68      0.00    -10.00      0.00
  17700.00    373.68      0.00    -10.00      0.00
  17750.00    373.68      0.00    -10.00      0.00
  17800.00    373.68      0.00    -10.00      0.00
  17850.00    373.68      0.00    -10.00      0.00
  17900.00    373.68      0.00    -10.00      0.00
  17950.00    373.69      0.00    -10.00      0.00
  18000.00    373.69      0.00    -10.00      0.00
  18050.00    373.69      0.00    -10.00      0.00
  18100.00    373.69      0.00    -10.00      0.00
  18150.00    373.69      0.00    -10.00      0.00
  18200.00    373.69      0.00    -10.00      0.00
  18250.00    373.69      0.00    -10.00      0.00
  18300.00    373.69      0.00    -10.00      0.00
  18350.00    373.69      0.00    -10.00      0.00
  18400.00    373.69      0.00    -10.00      0.00
  18450.00    373.69      0.00    -10.00      0.00
  18500.00    373.69      0.00    -10.00      0.00
  18550.00    373.69      0.00    -10.00      0.00
  18600.00    373.69      0.00    -10.00      0.00
  18650.00    373.69      0.00    -10.00      0.00
  18700.00    373.69      0.00    -10.00      0.00
  18750.00    373.69      0.00    -10.00      0.00
  18800.00    373.69      0.00    -10.00      0.00
  18850.00    373.69      0.00    -10.00      0.00
  18900.00    373.69      0.00    -10.00      0.00
  18950.00    373.69      0.00    -10.00      0.00
  19000.00    373.69      0.00    -10.00      0.00
  19050.00    373.69      0.00    -10.00      0.00
  19100.00    373.69      0.00    -10.00      0.00
  19150.00    373.69      0.00    -10.00      0.00
  19200.00    373.69      0.00    -10.00      0.00
  19250.00    373.69      0.00    -10.00      0.00
  19300.00    373.69      0.00    -10.00      0.00
  19350.00    373.69      0.00    -10.00      0.00
  19400.00    373.69      0.00    -10.00      0.00
  19450.00    373.69      0.00    -10.00      0.00
  19500.00    373.69      0.00    -10.00      0.00
  19550.00    373.69      0.00    -10.00      0.00
  19600.00    373.69      0.00    -10.00      0.00
  19650.00    373.69      0.00    -10.00      0.00
  19700.00    373.69      0.00    -10.00      0.00
  19750.00    373.69      0.00    -10.00      0.00
  19800.00    373.69      0.00    -10.00      0.00
  19850.00    373.69      0.00    -10.00      0.00
  19900.00    373.69      0.00    -10.00      0.00
  19950.00    373.69      0.00    -10.00      0.00
  20000.00    373.69      0.00    -10.00      0.00
  20050.00    373.69      0.00    -10.00      0.00
  20100.00    373.69      0.00    -10.00      0.00
  20150.00    373.69      0.00    -10.00      0.00
  20200.00    373.69      0.00    -10.00      0.00
  20250.00    373.69      0.00    -10.00      0.00
  20300.00    373.69      0.00    -10.00      0.00
  20350.00    373.69      0.00    -10.00      0.00
  20400.00    373.69      0.00    -10.00      0.00
  20450.00    373.69      0.00    -10.00      0.00
  20500.00    373.69      0.00    -10.00      0.00
  20550.00    373.69      0.00    -10.00      0.00
  20600.00    373.69      0.00    -10.00      0.00
  20650.00    373.69      0.00    -10.00      0.00
  20700.00    373.69      0.00    -10.00      0.00
  20750.00    373.69      0.00    -10.00      0.00
  20800.00    373.69      0.00    -10.00      0.00
  20850.00    373.69      0.00    -10.00      0.00
  20900.00    373.69      0.00    -10.00      0.00
  20950.00    373.69      0.00    -10.00      0.00
  21000.00    373.69      0.00    -10.00      0.00
  21050.00    373.69      0.00    -10.00      0.00
  21100.00    373.69      0.00    -10.00      0.00
  21150.00    373.69      0.00    -10.00      0.00
  21200.00    373.69      0.00    -10.00      0.00
  21250.00    373.69      0.00    -10.00      0.00
  21300.00    373.69      0.00    -10.00      0.00
  21350.00    373.69      0.00    -10.00      0.00
  21400.00    373.69      0.00    -10.00      0.00
  21450.00    373.69      0.00    -10.00      0.00
  21500.00    373.69      0.00    -10.00      0.00
  21550.00    373.69      0.00    -10.00      0.00
  21600.00    373.69      0.00    -10.00      0.00
  21650.00    373.69      0.00    -10.00      0.00
  21700.00    373.69      0.00    -10.00      0.00
  21750.00    373.69      0.00    -10.00      0.00
  21800.00    373.69      0.00    -10.00      0.00
  21850.00    373.69      0.00    -10.00      0.00
  21900.00    373.69      0.00    -10.00      0.00
  21950.00    373.69      0.00    -10.00      0.00
  22000.00    373.69      0.00    -10.00      0.00
  22050.00    373.69      0.00    -10.00      0.00
  22100.00    373.69      0.00    -10.00      0.00
  22150.00    373.69      0.00    -10.00      0.00
  22200.00    373.69      0.00    -10.00      0.00
  22250.00    373.69      0.00    -10.00      0.00
  22300.00    373.69      0.00    -10.00      0.00
  22350.00    373.69      0.00    -10.00      0.00
  22400.00    373.69      0.00    -10.00      0.00
  22450.00    373.69      0.00    -10.00      0.00
  22500.00    373.69      0.00    -10.00      0.00
  22550.00    373.69      0.00    -10.00      0.00
  22600.00    373.69      0.00    -10.00      0.00
  22650.00    373.69      0.00    -10.00      0.00
  22700.00    373.69      0.00    -10.00      0.00
  22750.00    373.69      0.00    -10.00      0.00
  22800.00    373.69      0.00    -10.00      0.00
  22850.00    373.69      0.00    -10.00      0.00
  22900.00    373.69      0.00    -10.00      0.00
  22950.00    373.69      0.00    -10.00      0.00
  23000.00    373.69      0.00    -10.00      0.00
  23050.00    373.69      0.00    -10.00      0.00
  23100.00    373.69      0.00    -10.00      0.00
  23150.00    373.69      0.00    -10.00      0.00
  23200.00    373.69      0.00    -10.00      0.00
  23250.00    373.69      0.00    -10.00      0.00
  23300.00    373.69      0.00    -10.00      0.00
  23350.00    373.69      0.00    -10.00      0.00
  23400.00    373.69      0.00    -10.00      0.00
  23450.00    373.69      0.00    -10.00      0.00
  23500.00    373.69      0.00    -10.00      0.00
  23550.00    373.69      0.00    -10.00      0.00
  23600.00    373.69      0.00    -10.00      0.00
  23650.00    373.69      0.00    -10.00      0.00
  23700.00    373.69      0.00    -10.00      0.00
  23750.00    373.69      0.00    -10.00      0.00
  23800.00    373.69      0.00    -10.00      0.00
  23850.00    373.69      0.00    -10.00      0.00
  23900.00    373.69      0.00    -10.00      0.00
  23950.00    373.69      0.00    -10.00      0.00
  24000.00    373.69      0.00    -10.00      0.00
  24050.00    373.69      0.00    -10.00      0.00
  24100.00    373.69      0.00    -10.00      0.00
  24150.00    373.69      0.00    -10.00      0.00
  24200.00    373.69      0.00    -10.00      0.00
  24250.00    373.69      0.00    -10.00      0.00
  24300.00    373.69      0.00    -10.00      0.00
  24350.00    373.69      0.00    -10.00      0.00
  24400.00    373.69      0.00    -10.00      0.00
  24450.00    373.69      0.00    -10.00      0.00
  24500.00    373.69      0.00    -10.00      0.00
  24550.00    373.69      0.00    -10.00      0.00
  24600.00    373.69      0.00    -10.00      0.00
  24650.00    373.69      0.00    -10.00      0.00
  24700.00    373.69      0.00    -10.00      0.00
  24750.00    373.69      0.00    -10.00      0.00
  24800.00    373.69      0.00    -10.00      0.00
  24850.00    373.69      0.00    -10.00      0.00
  24900.00    373.69      0.00    -10.00      0.00
  24950.00    373.69      0.00    -10.00      0.00
  25000.00    373.69      0.00    -10.00      0.00
  25050.00    373.69      0.00    -10.00      0.00
  25100.00    373.69      0.00    -10.00      0.00
  25150.00    373.69      0.00    -10.00      0.00
  25200.00    373.69      0.00    -10.00      0.00
  25250.00    373.69      0.00    -10.00      0.00
  25300.00    373.69      0.00    -10.00      0.00
  25350.00    373.69      0.00    -10.00      0.00
  25400.00    373.69      0.00    -10.00      0.00
  25450.00    373.69      0.00    -10.00      0.00
  25500.00    373.69      0.00    -10.00      0.00
  25550.00    373.69      0.00    -10.00      0.00
  25600.00    373.69      0.00    -10.00      0.00
  25650.00    373.69      0.00    -10.00      0.00
  25700.00    373.69      0.00    -10.00      0.00
  25750.00    373.69      0.00    -10.00      0.00
  25800.00    373.69      0.00    -10.00      0.00
  25850.00    373.69      0.00    -10.00      0.00
  25900.00    373.69      0.00    -10.00      0.00
  25950.00    373.69      0.00    -10.00      0.00
  26000.00    373.69      0.00    -10.00      0.00
  26050.00    373.69      0.00    -10.00      0.00
  26100.00    373.69      0.00    -10.00      0.00
  26150.00    373.69      0.00    -10.00      0.00
  26200.00    373.69      0.00    -10.00      0.00
  26250.00    373.69      0.00    -10.00      0.00
  26300.00    373.69      0.00    -10.00      0.00
  26350.00    373.69      0.00    -10.00      0.00
  26400.00    373.69      0.00    -10.00      0.00
  26450.00    373.69      0.00    -10.00      0.00
  26500.00    373.69      0.00    -10.00      0.00
  26550.00    373.69      0.00    -10.00      0.00
  26600.00    373.69      0.00    -10.00      0.00
  26650.00    373.69      0.00    -10.00      0.00
  26700.00    373.69      0.00    -10.00      0.00
  26750.00    373.69      0.00    -10.00      0.00
  26800.00    373.69      0.00    -10.00      0.00
  26850.00    373.69      0.00    -10.00      0.00
  26900.00    373.69      0.00    -10.00      0.00
  26950.00    373.69      0.00    -10.00      0.00
  27000.00    373.69      0.00    -10.00      0.00
  27050.00    373.69      0.00    -10.00      0.00
  27100.00    373.69      0.00    -10.00      0.00
  27150.00    373.69      0.00    -10.00      0.00
  27200.00    373.69      0.00    -10.00      0.00
  27250.00    373.69      0.00    -10.00      0.00
  27300.00    373.69      0.00    -10.00      0.00
  27350.00    373.69      0.00    -10.00      0.00
  27400.00    373.69      0.00    -10.00      0.00
  27450.00    373.69      0.00    -10.00      0.00
  27500.00    373.69      0.00    -10.00      0.00
  27550.00    373.69      0.00    -10.00      0.00
  27600.00    373.69      0.00    -10.00      0.00
  27650.00    373.69      0.00    -10.00      0.00
  27700.00    373.69      0.00    -10.00      0.00
  27750.00    373.69      0.00    -10.00      0.00
  27800.00    373.69      0.00    -10.00      0.00
  27850.00    373.69      0.00    -10.00      0.00
  27900.00    373.69      0.00    -10.00      0.00
  27950.00    373.69      0.00    -10.00      0.00
  28000.00    373.69      0.00    -10.00      0.00
  28050.00    373.69      0.00    -10.00      0.00
  28100.00    373.69      0.00    -10.00      0.00
  28150.00    373.69      0.00    -10.00      0.00
  28200.00    373.69      0.00    -10.00      0.00
  28250.00    373.69      0.00    -10.00      0.00
  28300.00    373.69      0.00    -10.00      0.00
  28350.00    373.69      0.00    -10.00      0.00
  28400.00    373.69      0.00    -10.00      0.00
  28450.00    373.69      0.00    -10.00      0.00
  28500.00    373.69      0.00    -10.00      0.00
  28550.00    373.69      0.00    -10.00      0.00
  28600.00    373.69      0.00    -10.00      0.00
  28650.00    373.69      0.00    -10.00      0.00
  28700.00    373.69      0.00    -10.00      0.00
  28750.00    373.69      0.00    -10.00      0.00
  28800.00    373.69      0.00    -10.00      0.00
  28850.00    373.69      0.00    -10.00      0.00
  28900.00    373.69      0.00    -10.00      0.00
  28950.00    373.69      0.00    -10.00      0.00
  29000.00    373.69      0.00    -10.00      0.00
  29050.00    373.69      0.00    -10.00      0.00
  29100.00    373.69      0.00    -10.00      0.00
  29150.00    373.69      0.00    -10.00      0.00
  29200.00    373.69      0.00    -10.00      0.00
  29250.00    373.69      0.00    -10.00      0.00
  29300.00    373.69      0.00    -10.00      0.00