   1000.00    299.06  17.0538388
      0.00    299.06  17.0538388    -10.00      0.00
     50.00    299.06  17.0538388    -10.00      0.00
    100.00    299.06  17.0200956    -10.00      0.00
    150.00    299.07  16.9544667    -10.00      0.00
    200.00    299.07  16.8888377    -10.00      0.00
    250.00    299.09  16.8146200    -10.00      0.00
    300.00    299.11  16.7326339    -10.00      0.00
    350.00    299.14  16.6506478    -10.00      0.00
    400.00    299.19  16.4961637    -10.00      0.00
    450.00    299.28  16.2693362    -10.00      0.00
    500.00    299.37  16.0425086    -10.00      0.00
    550.00    299.52  15.7176960    -10.00      0.00
    600.00    299.74  15.2678380    -10.00      0.00
    650.00    299.97  14.8179801    -10.00      0.00
    700.00    300.22  14.3572107    -10.00      0.00
    750.00    300.53  13.8752522    -10.00      0.00
    800.00    300.84  13.3932937    -10.00      0.00
    850.00    301.17  12.9096967    -10.00      0.00
    900.00    301.54  12.4195224    -10.00      0.00
    950.00    301.92  11.9293481    -10.00      0.00
   1000.00    302.30  11.4400269    -10.00      0.00
   1050.00    302.70  11.0088892    -10.00      0.00
   1100.00    303.10  10.5777516    -10.00      0.00
   1150.00    303.50  10.1466139    -10.00      0.00
   1200.00    303.87   9.8025506    -10.00      0.00
   1250.00    304.23   9.4828110    -10.00      0.00
   1300.00    304.59   9.1630714    -10.00      0.00
   1350.00    304.93   8.8926013    -10.00      0.00
   1400.00    305.23   8.6717436    -10.00      0.00
   1450.00    305.54   8.4508858    -10.00      0.00
   1500.00    305.84   8.2393308    -10.00      0.00
   1550.00    306.10   8.0757344    -10.00      0.00
   1600.00    306.37   7.9121380    -10.00      0.00
   1650.00    306.64   7.7485416    -10.00      0.00
   1700.00    306.89   7.6060228    -10.00      0.00
   1750.00    307.14   7.4697017    -10.00      0.00
   1800.00    307.39   7.3333806    -10.00      0.00
   1850.00    307.64   7.2026853    -10.00      0.00
   1900.00    307.88   7.0835395    -10.00      0.00
   1950.00    308.12   6.9643937    -10.00      0.00
   2000.00    308.36   6.8452479    -10.00      0.00
   2050.00    308.59   6.7376646    -10.00      0.00
   2100.00    308.83   6.6325365    -10.00      0.00
   2150.00    309.06   6.5274085    -10.00      0.00
   2200.00    309.30   6.4254247    -10.00      0.00
   2250.00    309.53   6.3322755    -10.00      0.00
   2300.00    309.76   6.2391264    -10.00      0.00
   2350.00    309.99   6.1459773    -10.00      0.00
   2400.00    310.22   6.0588132    -10.00      0.00
   2450.00    310.45   5.9750441    -10.00      0.00
   2500.00    310.69   5.8912750    -10.00      0.00
   2550.00    310.92   5.8075059    -10.00      0.00
   2600.00    311.15   5.7287978    -10.00      0.00
   2650.00    311.38   5.6503615    -10.00      0.00
   2700.00    311.61   5.5719253    -10.00      0.00
   2750.00    311.84   5.4941443    -10.00      0.00
   2800.00    312.08   5.4191100    -10.00      0.00
   2850.00    312.31   5.3440758    -10.00      0.00
   2900.00    312.54   5.2690416    -10.00      0.00
   2950.00    312.77   5.1958061    -10.00      0.00
   3000.00    313.01   5.1256886    -10.00      0.00
   3050.00    313.25   5.0555710    -10.00      0.00
   3100.00    313.48   4.9854535    -10.00      0.00
   3150.00    313.72   4.9179211    -10.00      0.00
   3200.00    313.96   4.8533550    -10.00      0.00
   3250.00    314.19   4.7887889    -10.00      0.00
   3300.00    314.43   4.7242228    -10.00      0.00
   3350.00    314.67   4.6622185    -10.00      0.00
   3400.00    314.91   4.6028956    -10.00      0.00
   3450.00    315.15   4.5435727    -10.00      0.00
   3500.00    315.39   4.4842498    -10.00      0.00
   3550.00    315.63   4.4260667    -10.00      0.00
   3600.00    315.88   4.3693886    -10.00      0.00
   3650.00    316.12   4.3127105    -10.00      0.00
   3700.00    316.36   4.2560324    -10.00      0.00
   3750.00    316.60   4.1991329    -10.00      0.00
   3800.00    316.85   4.1416886    -10.00      0.00
   3850.00    317.09   4.0842444    -10.00      0.00
   3900.00    317.34   4.0268002    -10.00      0.00
   3950.00    317.58   3.9692014    -10.00      0.00
   4000.00    317.83   3.9091120    -10.00      0.00
   4050.00    318.07   3.8490226    -10.00      0.00
   4100.00    318.32   3.7889332    -10.00      0.00
   4150.00    318.57   3.7288438    -10.00      0.00
   4200.00    318.82   3.6677443    -10.00      0.00
   4250.00    319.07   3.6062808    -10.00      0.00
   4300.00    319.32   3.5448173    -10.00      0.00
   4350.00    319.58   3.4833538    -10.00      0.00
   4400.00    319.83   3.4219966    -10.00      0.00
   4450.00    320.10   3.3608715    -10.00      0.00
   4500.00    320.36   3.2997464    -10.00      0.00
   4550.00    320.62   3.2386213    -10.00      0.00
   4600.00    320.88   3.1774961    -10.00      0.00
   4650.00    321.15   3.1181806    -10.00      0.00
   4700.00    321.42   3.0593447    -10.00      0.00
   4750.00    321.70   3.0005089    -10.00      0.00
   4800.00    321.97   2.9416731    -10.00      0.00
   4850.00    322.24   2.8838464    -10.00      0.00
   4900.00    322.52   2.8314105    -10.00      0.00
   4950.00    322.79   2.7789746    -10.00      0.00
   5000.00    323.06   2.7265387    -10.00      0.00
   5050.00    323.34   2.6741028    -10.00      0.00
   5100.00    323.61   2.6248798    -10.00      0.00
   5150.00    323.88   2.5802885    -10.00      0.00
   5200.00    324.14   2.5356973    -10.00      0.00
   5250.00    324.41   2.4911061    -10.00      0.00
   5300.00    324.68   2.4465148    -10.00      0.00
   5350.00    324.94   2.4042019    -10.00      0.00
   5400.00    325.20   2.3638322    -10.00      0.00
   5450.00    325.46   2.3234625    -10.00      0.00
   5500.00    325.71   2.2830928    -10.00      0.00
   5550.00    325.97   2.2427231    -10.00      0.00
   5600.00    326.23   2.2021534    -10.00      0.00
   5650.00    326.48   2.1614142    -10.00      0.00
   5700.00    326.72   2.1206750    -10.00      0.00
   5750.00    326.97   2.0799358    -10.00      0.00
   5800.00    327.22   2.0391967    -10.00      0.00
   5850.00    327.47   1.9973286    -10.00      0.00
   5900.00    327.72   1.9538228    -10.00      0.00
   5950.00    327.96   1.9103171    -10.00      0.00
   6000.00    328.20   1.8668113    -10.00      0.00
   6050.00    328.45   1.8233056    -10.00      0.00
   6100.00    328.69   1.7796017    -10.00      0.00
   6150.00    328.93   1.7345936    -10.00      0.00
   6200.00    329.18   1.6895855    -10.00      0.00
   6250.00    329.42   1.6445774    -10.00      0.00
   6300.00    329.66   1.5995694    -10.00      0.00
   6350.00    329.90   1.5545613    -10.00      0.00
   6400.00    330.15   1.5106914    -10.00      0.00
   6450.00    330.39   1.4672991    -10.00      0.00
   6500.00    330.63   1.4239067    -10.00      0.00
   6550.00    330.88   1.3805144    -10.00      0.00
   6600.00    331.12   1.3371221    -10.00      0.00
   6650.00    331.36   1.2943642    -10.00      0.00
   6700.00    331.60   1.2564406    -10.00      0.00
   6750.00    331.85   1.2185171    -10.00      0.00
   6800.00    332.09   1.1805936    -10.00      0.00
   6850.00    332.33   1.1426700    -10.00      0.00
   6900.00    332.57   1.1047465    -10.00      0.00
   6950.00    332.81   1.0701544    -10.00      0.00
   7000.00    333.05   1.0415975    -10.00      0.00
   7050.00    333.28   1.0130406    -10.00      0.00
   7100.00    333.52   0.9844838    -10.00      0.00
   7150.00    333.75   0.9559269    -10.00      0.00
   7200.00    333.99   0.9273700    -10.00      0.00
   7250.00    334.22   0.9029060    -10.00      0.00
   7300.00    334.44   0.8842959    -10.00      0.00
   7350.00    334.66   0.8656858    -10.00      0.00
   7400.00    334.88   0.8470757    -10.00      0.00
   7450.00    335.10   0.8284657    -10.00      0.00
   7500.00    335.32   0.8098556    -10.00      0.00
   7550.00    335.54   0.7927985    -10.00      0.00
   7600.00    335.74   0.7799243    -10.00      0.00
   7650.00    335.94   0.7670501    -10.00      0.00
   7700.00    336.15   0.7541758    -10.00      0.00
   7750.00    336.35   0.7413016    -10.00      0.00
   7800.00    336.55   0.7284274    -10.00      0.00
   7850.00    336.75   0.7155532    -10.00      0.00
   7900.00    336.95   0.7024952    -10.00      0.00
   7950.00    337.14   0.6894212    -10.00      0.00
   8000.00    337.33   0.6763472    -10.00      0.00
   8050.00    337.52   0.6632732    -10.00      0.00
   8100.00    337.71   0.6501992    -10.00      0.00
   8150.00    337.90   0.6371252    -10.00      0.00
   8200.00    338.08   0.6228815    -10.00      0.00
   8250.00    338.27   0.6064147    -10.00      0.00
   8300.00    338.45   0.5899478    -10.00      0.00
   8350.00    338.64   0.5734810    -10.00      0.00
   8400.00    338.82   0.5570142    -10.00      0.00
   8450.00    339.01   0.5405473    -10.00      0.00
   8500.00    339.19   0.5240805    -10.00      0.00
   8550.00    339.38   0.5065687    -10.00      0.00
   8600.00    339.56   0.4881215    -10.00      0.00
   8650.00    339.75   0.4696744    -10.00      0.00
   8700.00    339.93   0.4512273    -10.00      0.00
   8750.00    340.11   0.4327802    -10.00      0.00
   8800.00    340.30   0.4143331    -10.00      0.00
   8850.00    340.48   0.3958859    -10.00      0.00
   8900.00    340.66   0.3784981    -10.00      0.00
   8950.00    340.84   0.3624104    -10.00      0.00
   9000.00    341.02   0.3463227    -10.00      0.00
   9050.00    341.20   0.3302351    -10.00      0.00
   9100.00    341.38   0.3141474    -10.00      0.00
   9150.00    341.56   0.2980597    -10.00      0.00
   9200.00    341.74   0.2819721    -10.00      0.00
   9250.00    341.91   0.2663300    -10.00      0.00
   9300.00    342.08   0.2554603    -10.00      0.00
   9350.00    342.24   0.2445907    -10.00      0.00
   9400.00    342.41   0.2337211    -10.00      0.00
   9450.00    342.57   0.2228515    -10.00      0.00
   9500.00    342.74   0.2119819    -10.00      0.00
   9550.00    342.91   0.2011123    -10.00      0.00
   9600.00    343.07   0.1902427    -10.00      0.00
   9650.00    343.23   0.1814207    -10.00      0.00
   9700.00    343.37   0.1755286    -10.00      0.00
   9750.00    343.51   0.1696364    -10.00      0.00
   9800.00    343.65   0.1637443    -10.00      0.00
   9850.00    343.79   0.1578521    -10.00      0.00
   9900.00    343.93   0.1519600    -10.00      0.00
   9950.00    344.07   0.1460678    -10.00      0.00
  10000.00    344.21   0.1401757    -10.00      0.00
  10050.00    344.34   0.1354696    -10.00      0.00
  10100.00    344.45   0.1325496    -10.00      0.00
  10150.00    344.56   0.1296296    -10.00      0.00
  10200.00    344.68   0.1267096    -10.00      0.00
  10250.00    344.79   0.1237896    -10.00      0.00
  10300.00    344.90   0.1208696    -10.00      0.00
  10350.00    345.01   0.1179496    -10.00      0.00
  10400.00    345.12   0.1150296    -10.00      0.00
  10450.00    345.23   0.1121269    -10.00      0.00
  10500.00    345.32   0.1101896    -10.00      0.00
  10550.00    345.41   0.1082523    -10.00      0.00
  10600.00    345.50   0.1063150    -10.00      0.00
  10650.00    345.58   0.1043777    -10.00      0.00
  10700.00    345.67   0.1024405    -10.00      0.00
  10750.00    345.76   0.1005032    -10.00      0.00
  10800.00    345.84   0.0985659    -10.00      0.00
  10850.00    345.93   0.0966286    -10.00      0.00
  10900.00    346.01   0.0946965    -10.00      0.00
  10950.00    346.09   0.0927816    -10.00      0.00
  11000.00    346.16   0.0908667    -10.00      0.00
  11050.00    346.23   0.0889517    -10.00      0.00
  11100.00    346.30   0.0870368    -10.00      0.00
  11150.00    346.38   0.0851219    -10.00      0.00
  11200.00    346.45   0.0832070    -10.00      0.00
  11250.00    346.52   0.0812920    -10.00      0.00
  11300.00    346.59   0.0793771    -10.00      0.00
  11350.00    346.66   0.0774622    -10.00      0.00
  11400.00    346.73   0.0755293    -10.00      0.00
  11450.00    346.79   0.0735963    -10.00      0.00
  11500.00    346.86   0.0716633    -10.00      0.00
  11550.00    346.92   0.0697303    -10.00      0.00
  11600.00    346.99   0.0677974    -10.00      0.00
  11650.00    347.05   0.0658644    -10.00      0.00
  11700.00    347.12   0.0639314    -10.00      0.00
  11750.00    347.18   0.0619984    -10.00      0.00
  11800.00    347.25   0.0600655    -10.00      0.00
  11850.00    347.31   0.0581930    -10.00      0.00
  11900.00    347.38   0.0564913    -10.00      0.00
  11950.00    347.44   0.0547896    -10.00      0.00
  12000.00    347.51   0.0530879    -10.00      0.00
  12050.00    347.57   0.0513863    -10.00      0.00
  12100.00    347.64   0.0496846    -10.00      0.00
  12150.00    347.70   0.0479829    -10.00      0.00
  12200.00    347.77   0.0462812    -10.00      0.00
  12250.00    347.84   0.0445796    -10.00      0.00
  12300.00    347.90   0.0428779    -10.00      0.00
  12350.00    347.97   0.0411762    -10.00      0.00
  12400.00    348.05   0.0398662    -10.00      0.00
  12450.00    348.12   0.0385739    -10.00      0.00
  12500.00    348.20   0.0372816    -10.00      0.00
  12550.00    348.28   0.0359893    -10.00      0.00
  12600.00    348.36   0.0346970    -10.00      0.00
  12650.00    348.44   0.0334047    -10.00      0.00
  12700.00    348.52   0.0321124    -10.00      0.00
  12750.00    348.60   0.0308201    -10.00      0.00
  12800.00    348.68   0.0295278    -10.00      0.00
  12850.00    348.76   0.0282355    -10.00      0.00
  12900.00    348.84   0.0269432    -10.00      0.00
  12950.00    348.97   0.0260673    -10.00      0.00
  13000.00    349.10   0.0251919    -10.00      0.00
  13050.00    349.23   0.0243164    -10.00      0.00
  13100.00    349.37   0.0234410    -10.00      0.00
  13150.00    349.50   0.0225656    -10.00      0.00
  13200.00    349.63   0.0216902    -10.00      0.00
  13250.00    349.76   0.0208148    -10.00      0.00
  13300.00    349.89   0.0199393    -10.00      0.00
  13350.00    350.02   0.0190639    -10.00      0.00
  13400.00    350.15   0.0181885    -10.00      0.00
  13450.00    350.28   0.0173131    -10.00      0.00
  13500.00    350.45   0.0165327    -10.00      0.00
  13550.00    350.71   0.0160090    -10.00      0.00
  13600.00    350.97   0.0154853    -10.00      0.00
  13650.00    351.23   0.0149616    -10.00      0.00
  13700.00    351.49   0.0144380    -10.00      0.00
  13750.00    351.75   0.0139143    -10.00      0.00
  13800.00    352.01   0.0133906    -10.00      0.00
  13850.00    352.27   0.0128669    -10.00      0.00
  13900.00    352.53   0.0123432    -10.00      0.00
  13950.00    352.79   0.0118196    -10.00      0.00
  14000.00    353.05   0.0112959    -10.00      0.00
  14050.00    353.31   0.0107722    -10.00      0.00
  14100.00    353.57   0.0102485    -10.00      0.00
  14150.00    353.97   0.0098659    -10.00      0.00
  14200.00    354.46   0.0095808    -10.00      0.00
  14250.00    354.95   0.0092957    -10.00      0.00
  14300.00    355.45   0.0090106    -10.00      0.00
  14350.00    355.94   0.0087255    -10.00      0.00
  14400.00    356.44   0.0084404    -10.00      0.00
  14450.00    356.93   0.0081554    -10.00      0.00
  14500.00    357.42   0.0078703    -10.00      0.00
  14550.00    357.92   0.0075852    -10.00      0.00
  14600.00    358.41   0.0073001    -10.00      0.00
  14650.00    358.91   0.0070150    -10.00      0.00
  14700.00    359.40   0.0067299    -10.00      0.00
  14750.00    359.89   0.0064448    -10.00      0.00
  14800.00    360.39   0.0061597    -10.00      0.00
  14850.00    361.08   0.0059570    -10.00      0.00
  14900.00    361.86   0.0057947    -10.00      0.00
  14950.00    362.65   0.0056323    -10.00      0.00
  15000.00    363.43   0.0054700    -10.00      0.00
  15050.00    364.22   0.0053076    -10.00      0.00
  15100.00    365.00   0.0051453    -10.00      0.00
  15150.00    365.79   0.0049829    -10.00      0.00
  15200.00    366.57   0.0048206    -10.00      0.00
  15250.00    367.36   0.0046582    -10.00      0.00
  15300.00    368.14   0.0044959    -10.00      0.00
  15350.00    368.93   0.0043335    -10.00      0.00
  15400.00    369.71   0.0041712    -10.00      0.00
  15450.00    370.50   0.0040088    -10.00      0.00
  15500.00    371.28   0.0038465    -10.00      0.00
  15550.00    372.07   0.0036841    -10.00      0.00
  15600.00    372.86   0.0035251    -10.00      0.00
  15650.00    373.93   0.0034350    -10.00      0.00
  15700.00    375.00   0.0033449    -10.00      0.00
  15750.00    376.07   0.0032547    -10.00      0.00
  15800.00    377.14   0.0031646    -10.00      0.00
  15850.00    378.21   0.0030745    -10.00      0.00
  15900.00    379.29   0.0029843    -10.00      0.00
  15950.00    380.36   0.0028942    -10.00      0.00
  16000.00    381.43   0.0028041    -10.00      0.00
  16050.00    382.50   0.0027139    -10.00      0.00
  16100.00    383.57   0.0026238    -10.00      0.00
  16150.00    384.64   0.0025337    -10.00      0.00
  16200.00    385.71   0.0024436    -10.00      0.00
  16250.00    386.78   0.0023534    -10.00      0.00
  16300.00    387.85   0.0022633    -10.00      0.00
  16350.00    388.92   0.0021732    -10.00      0.00
  16400.00    389.99   0.0020830    -10.00      0.00
  16450.00    391.06   0.0019929    -10.00      0.00
  16500.00    392.13   0.0019028    -10.00      0.00
  16550.00    393.45   0.0018578    -10.00      0.00
  16600.00    394.78   0.0018129    -10.00      0.00
  16650.00    396.11   0.0017680    -10.00      0.00
  16700.00    397.43   0.0017230    -10.00      0.00
  16750.00    398.76   0.0016781    -10.00      0.00
  16800.00    400.08   0.0016332    -10.00      0.00
  16850.00    401.41   0.0015882    -10.00      0.00
  16900.00    402.74   0.0015433    -10.00      0.00
  16950.00    404.06   0.0014984    -10.00      0.00
  17000.00    405.39   0.0014534    -10.00      0.00
  17050.00    406.71   0.0014085    -10.00      0.00
  17100.00    408.04   0.0013636    -10.00      0.00
  17150.00    409.37   0.0013186    -10.00      0.00
  17200.00    410.69   0.0012737    -10.00      0.00
  17250.00    412.02   0.0012288    -10.00      0.00
  17300.00    413.34   0.0011838    -10.00      0.00
  17350.00    414.67   0.0011389    -10.00      0.00
  17400.00    416.00   0.0010940    -10.00      0.00
  17450.00    417.32   0.0010490    -10.00      0.00
  17500.00    418.65   0.0010041    -10.00      0.00
  17550.00    419.97   0.0009592    -10.00      0.00
  17600.00    421.38   0.0009242    -10.00      0.00
  17650.00    422.91   0.0009046    -10.00      0.00
  17700.00    424.45   0.0008850    -10.00      0.00
  17750.00    425.98   0.0008654    -10.00      0.00
  17800.00    427.51   0.0008458    -10.00      0.00
  17850.00    429.05   0.0008262    -10.00      0.00
  17900.00    430.58   0.0008066    -10.00      0.00
  17950.00    432.11   0.0007870    -10.00      0.00
  18000.00    433.65   0.0007674    -10.00      0.00
  18050.00    435.18   0.0007478    -10.00      0.00
  18100.00    436.71   0.0007282    -10.00      0.00
  18150.00    438.25   0.0007086    -10.00      0.00
  18200.00    439.78   0.0006890    -10.00      0.00
  18250.00    441.31   0.0006694    -10.00      0.00
  18300.00    442.84   0.0006498    -10.00      0.00
  18350.00    444.38   0.0006302    -10.00      0.00
  18400.00    445.91   0.0006106    -10.00      0.00
  18450.00    447.44   0.0005910    -10.00      0.00
  18500.00    448.98   0.0005714    -10.00      0.00
  18550.00    450.51   0.0005519    -10.00      0.00
  18600.00    452.04   0.0005323    -10.00      0.00
  18650.00    453.58   0.0005127    -10.00      0.00
  18700.00    455.11   0.0004931    -10.00      0.00
  18750.00    456.64   0.0004735    -10.00      0.00
  18800.00    458.18   0.0004539    -10.00      0.00
  18850.00    459.71   0.0004343    -10.00      0.00
  18900.00    461.24   0.0004147    -10.00      0.00
  18950.00    462.81   0.0003986    -10.00      0.00
  19000.00    464.46   0.0003913    -10.00      0.00
  19050.00    466.10   0.0003840    -10.00      0.00
  19100.00    467.75   0.0003766    -10.00      0.00
  19150.00    469.40   0.0003693    -10.00      0.00
  19200.00    471.04   0.0003619    -10.00      0.00
  19250.00    472.69   0.0003546    -10.00      0.00
  19300.00    474.34   0.0003472    -10.00      0.00
  19350.00    475.98   0.0003399    -10.00      0.00
  19400.00    477.63   0.0003326    -10.00      0.00
  19450.00    479.28   0.0003252    -10.00      0.00
  19500.00    480.93   0.0003179    -10.00      0.00
  19550.00    482.57   0.0003105    -10.00      0.00
  19600.00    484.22   0.0003032    -10.00      0.00
  19650.00    485.87   0.0002958    -10.00      0.00
  19700.00    487.51   0.0002885    -10.00      0.00
  19750.00    489.16   0.0002812    -10.00      0.00
  19800.00    490.81   0.0002738    -10.00      0.00
  19850.00    492.46   0.0002665    -10.00      0.00
  19900.00    494.10   0.0002591    -10.00      0.00
  19950.00    495.75   0.0002518    -10.00      0.00
  20000.00    497.40   0.0002444    -10.00      0.00
  20050.00    499.04   0.0002371    -10.00      0.00
  20100.00    500.69   0.0002298    -10.00      0.00
  20150.00    502.34   0.0002224    -10.00      0.00
  20200.00    503.98   0.0002151    -10.00      0.00
  20250.00    505.63   0.0002077    -10.00      0.00
  20300.00    507.28   0.0002004    -10.00      0.00
  20350.00    508.93   0.0001930    -10.00      0.00
  20400.00    510.57   0.0001857    -10.00      0.00
  20450.00    512.22   0.0001784    -10.00      0.00
  20500.00    513.87   0.0001710    -10.00      0.00
  20550.00    515.51   0.0001637    -10.00      0.00
  20600.00    517.16   0.0001563    -10.00      0.00
  20650.00    518.81   0.0001490    -10.00      0.00
  20700.00    520.46   0.0001416    -10.00      0.00
  20750.00    522.10   0.0001347    -10.00      0.00
  20800.00    523.71   0.0001327    -10.00      0.00
  20850.00    525.32   0.0001307    -10.00      0.00
  20900.00    526.93   0.0001287    -10.00      0.00
  20950.00    528.54   0.0001267    -10.00      0.00
  21000.00    530.15   0.0001246    -10.00      0.00
  21050.00    531.76   0.0001226    -10.00      0.00
  21100.00    533.37   0.0001206    -10.00      0.00
  21150.00    534.99   0.0001186    -10.00      0.00
  21200.00    536.60   0.0001166    -10.00      0.00
  21250.00    538.21   0.0001145    -10.00      0.00
  21300.00    539.82   0.0001125    -10.00      0.00
  21350.00    541.43   0.0001105    -10.00      0.00
  21400.00    543.04   0.0001085    -10.00      0.00
  21450.00    544.65   0.0001065    -10.00      0.00
  21500.00    546.26   0.0001044    -10.00      0.00
  21550.00    547.87   0.0001024    -10.00      0.00
  21600.00    549.48   0.0001004    -10.00      0.00
  21650.00    551.09   0.0000984    -10.00      0.00
  21700.00    552.70   0.0000964    -10.00      0.00
  21750.00    554.31   0.0000943    -10.00      0.00
  21800.00    555.93   0.0000923    -10.00      0.00
  21850.00    557.54   0.0000903    -10.00      0.00
  21900.00    559.15   0.0000883    -10.00      0.00
  21950.00    560.76   0.0000863    -10.00      0.00
  22000.00    562.37   0.0000842    -10.00      0.00
  22050.00    563.98   0.0000822    -10.00      0.00
  22100.00    565.59   0.0000802    -10.00      0.00
  22150.00    567.20   0.0000782    -10.00      0.00
  22200.00    568.81   0.0000762    -10.00      0.00
  22250.00    570.42   0.0000741    -10.00      0.00
  22300.00    572.03   0.0000721    -10.00      0.00
  22350.00    573.64   0.0000701    -10.00      0.00
  22400.00    575.26   0.0000681    -10.00      0.00
  22450.00    576.87   0.0000661    -10.00      0.00
  22500.00    578.48   0.0000640    -10.00      0.00
  22550.00    580.09   0.0000620    -10.00      0.00
  22600.00    581.70   0.0000600    -10.00      0.00
  22650.00    583.31   0.0000580    -10.00      0.00
  22700.00    584.92   0.0000560    -10.00      0.00
  22750.00    586.53   0.0000539    -10.00      0.00
  22800.00    588.14   0.0000519    -10.00      0.00
  22850.00    589.75   0.0000499    -10.00      0.00
  22900.00    591.36   0.0000479    -10.00      0.00
  22950.00    592.97   0.0000459    -10.00      0.00
  23000.00    594.58   0.0000438    -10.00      0.00
  23050.00    596.20   0.0000418    -10.00      0.00
  23100.00    597.81   0.0000398    -10.00      0.00
  23150.00    599.42   0.0000378    -10.00      0.00
  23200.00    601.03   0.0000358    -10.00      0.00
  23250.00    602.64   0.0000338    -10.00      0.00
  23300.00    604.25   0.0000317    -10.00      0.00
  23350.00    605.86   0.0000297    -10.00      0.00
  23400.00    607.47   0.0000277    -10.00      0.00
  23450.00    608.78   0.0000273    -10.00      0.00
  23500.00    610.07   0.0000271    -10.00      0.00
  23550.00    611.36   0.0000269    -10.00      0.00
  23600.00    612.64   0.0000267    -10.00      0.00
  23650.00    613.93   0.0000265    -10.00      0.00
  23700.00    615.22   0.0000263    -10.00      0.00
  23750.00    616.50   0.0000261    -10.00      0.00
  23800.00    617.79   0.0000259    -10.00      0.00
  23850.00    619.08   0.0000257    -10.00      0.00
  23900.00    620.36   0.0000255    -10.00      0.00
  23950.00    621.65   0.0000253    -10.00      0.00
  24000.00    622.94   0.0000251    -10.00      0.00
  24050.00    624.22   0.0000249    -10.00      0.00
  24100.00    625.51   0.0000247    -10.00      0.00
  24150.00    626.80   0.0000245    -10.00      0.00
  24200.00    628.08   0.0000243    -10.00      0.00
  24250.00    629.37   0.0000240    -10.00      0.00
  24300.00    630.65   0.0000238    -10.00      0.00
  24350.00    631.94   0.0000236    -10.00      0.00
  24400.00    633.23   0.0000234    -10.00      0.00
  24450.00    634.51   0.0000232    -10.00      0.00
  24500.00    635.80   0.0000230    -10.00      0.00
  24550.00    637.09   0.0000228    -10.00      0.00
  24600.00    638.37   0.0000226    -10.00      0.00
  24650.00    639.66   0.0000224    -10.00      0.00
  24700.00    640.95   0.0000222    -10.00      0.00
  24750.00    642.23   0.0000220    -10.00      0.00
  24800.00    643.52   0.0000218    -10.00      0.00
  24850.00    644.81   0.0000216    -10.00      0.00
  24900.00    646.09   0.0000214    -10.00      0.00
  24950.00    647.38   0.0000212    -10.00      0.00
  25000.00    648.67   0.0000210    -10.00      0.00
  25050.00    649.95   0.0000208    -10.00      0.00
  25100.00    651.24   0.0000205    -10.00      0.00
  25150.00    652.53   0.0000203    -10.00      0.00
  25200.00    653.81   0.0000201    -10.00      0.00
  25250.00    655.10   0.0000199    -10.00      0.00
  25300.00    656.39   0.0000197    -10.00      0.00
  25350.00    657.67   0.0000195    -10.00      0.00
  25400.00    658.96   0.0000193    -10.00      0.00
  25450.00    660.25   0.0000191    -10.00      0.00
  25500.00    661.53   0.0000189    -10.00      0.00
  25550.00    662.82   0.0000187    -10.00      0.00
  25600.00    664.11   0.0000185    -10.00      0.00
  25650.00    665.39   0.0000183    -10.00      0.00
  25700.00    666.68   0.0000181    -10.00      0.00
  25750.00    667.97   0.0000179    -10.00      0.00
  25800.00    669.25   0.0000177    -10.00      0.00
  25850.00    670.54   0.0000175    -10.00      0.00
  25900.00    671.83   0.0000173    -10.00      0.00
  25950.00    673.11   0.0000170    -10.00      0.00
  26000.00    674.40   0.0000168    -10.00      0.00
  26050.00    675.69   0.0000166    -10.00      0.00
  26100.00    676.97   0.0000164    -10.00      0.00
  26150.00    678.26   0.0000162    -10.00      0.00
  26200.00    679.54   0.0000160    -10.00      0.00
  26250.00    680.83   0.0000158    -10.00      0.00
  26300.00    682.12   0.0000156    -10.00      0.00
  26350.00    683.40   0.0000154    -10.00      0.00
  26400.00    684.69   0.0000152    -10.00      0.00
  26450.00    685.98   0.0000150    -10.00      0.00
  26500.00    687.26   0.0000148    -10.00      0.00
  26550.00    688.55   0.0000146    -10.00      0.00
  26600.00    689.84   0.0000144    -10.00      0.00
  26650.00    691.12   0.0000142    -10.00      0.00
  26700.00    692.41   0.0000140    -10.00      0.00
  26750.00    693.70   0.0000138    -10.00      0.00
  26800.00    694.98   0.0000135    -10.00      0.00
  26850.00    696.27   0.0000133    -10.00      0.00
  26900.00    697.56   0.0000131    -10.00      0.00
  26950.00    698.84   0.0000129    -10.00      0.00
  27000.00    700.13   0.0000127    -10.00      0.00
  27050.00    701.42   0.0000125    -10.00      0.00
  27100.00    702.70   0.0000123    -10.00      0.00
  27150.00    703.99   0.0000121    -10.00      0.00
  27200.00    705.28   0.0000119    -10.00      0.00
  27250.00    706.56   0.0000117    -10.00      0.00
  27300.00    707.85   0.0000115    -10.00      0.00
  27350.00    709.14   0.0000113    -10.00      0.00
  27400.00    710.42   0.0000111    -10.00      0.00
  27450.00    711.71   0.0000109    -10.00      0.00
  27500.00    713.00   0.0000107    -10.00      0.00
  27550.00    714.28   0.0000105    -10.00      0.00
  27600.00    715.57   0.0000103    -10.00      0.00
  27650.00    716.86   0.0000100    -10.00      0.00
  27700.00    718.14   0.0000098    -10.00      0.00
  27750.00    719.43   0.0000096    -10.00      0.00
  27800.00    720.72   0.0000094    -10.00      0.00
  27850.00    722.00   0.0000092    -10.00      0.00
  27900.00    723.29   0.0000090    -10.00      0.00
  27950.00    724.58   0.0000088    -10.00      0.00
  28000.00    725.86   0.0000086    -10.00      0.00
  28050.00    727.15   0.0000084    -10.00      0.00
  28100.00    727.22   0.0000084    -10.00      0.00
  28150.00    727.22   0.0000084    -10.00      0.00
  28200.00    727.22   0.0000084    -10.00      0.00