   1000.00    299.96     17.83
      0.00    299.96     17.83     10.59      0.00
     50.00    299.96     17.83     10.59      0.00
    100.00    299.96     17.78     10.81      0.00
    150.00    299.97     17.72     11.12      0.00
    200.00    299.98     17.65     11.43      0.00
    250.00    299.99     17.59     11.74      0.00
    300.00    300.02     17.48     12.05      0.00
    350.00    300.15     17.23     12.41      0.00
    400.00    300.27     16.98     12.76      0.00
    450.00    300.40     16.73     13.11      0.00
    500.00    300.52     16.48     13.46      0.00
    550.00    300.73     16.12     13.76      0.00
    600.00    300.98     15.70     14.04      0.00
    650.00    301.24     15.28     14.31      0.00
    700.00    301.49     14.86     14.59      0.00
    750.00    301.74     14.44     14.86      0.00
    800.00    301.98     14.15     15.03      0.00
    850.00    302.21     13.86     15.19      0.00
    900.00    302.44     13.56     15.36      0.00
    950.00    302.68     13.27     15.52      0.00
   1000.00    302.92     12.99     15.66      0.00
   1050.00    303.16     12.76     15.71      0.00
   1100.00    303.40     12.52     15.77      0.00
   1150.00    303.65     12.29     15.83      0.00
   1200.00    303.89     12.06     15.88      0.00
   1250.00    304.13     11.84     15.90      0.00
   1300.00    304.38     11.65     15.86      0.00
   1350.00    304.63     11.46     15.81      0.00
   1400.00    304.88     11.27     15.76      0.00
   1450.00    305.13     11.08     15.72      0.00
   1500.00    305.38     10.91     15.64      0.00
   1550.00    305.62     10.76     15.50      0.00
   1600.00    305.87     10.62     15.36      0.00
   1650.00    306.11     10.47     15.22      0.00
   1700.00    306.36     10.33     15.09      0.00
   1750.00    306.60     10.19     14.93      0.00
   1800.00    306.83     10.08     14.74      0.00
   1850.00    307.07      9.98     14.54      0.00
   1900.00    307.30      9.87     14.34      0.00
   1950.00    307.53      9.77     14.14      0.00
   2000.00    307.77      9.66     13.95      0.00
   2050.00    307.99      9.57     13.75      0.00
   2100.00    308.22      9.48     13.55      0.00
   2150.00    308.45      9.39     13.34      0.00
   2200.00    308.67      9.30     13.14      0.00
   2250.00    308.90      9.20     12.94      0.00
   2300.00    309.14      9.10     12.75      0.00
   2350.00    309.37      8.99     12.57      0.00
   2400.00    309.61      8.88     12.39      0.00
   2450.00    309.85      8.78     12.21      0.00
   2500.00    310.09      8.67     12.02      0.00
   2550.00    310.33      8.56     11.84      0.00
   2600.00    310.59      8.40     11.66      0.00
   2650.00    310.86      8.25     11.47      0.00
   2700.00    311.12      8.10     11.28      0.00
   2750.00    311.39      7.95     11.10      0.00
   2800.00    311.65      7.80     10.91      0.00
   2850.00    311.92      7.64     10.73      0.00
   2900.00    312.18      7.49     10.54      0.00
   2950.00    312.45      7.34     10.36      0.00
   3000.00    312.71      7.19     10.17      0.00
   3050.00    312.98      7.04      9.98      0.00
   3100.00    313.24      6.89      9.80      0.00
   3150.00    313.50      6.75      9.60      0.00
   3200.00    313.75      6.62      9.39      0.00
   3250.00    314.01      6.49      9.19      0.00
   3300.00    314.26      6.37      8.98      0.00
   3350.00    314.52      6.24      8.77      0.00
   3400.00    314.77      6.11      8.56      0.00
   3450.00    315.03      5.98      8.35      0.00
   3500.00    315.28      5.86      8.15      0.00
   3550.00    315.53      5.73      7.94      0.00
   3600.00    315.79      5.60      7.73      0.00
   3650.00    316.04      5.48      7.52      0.00
   3700.00    316.30      5.35      7.32      0.00
   3750.00    316.54      5.24      7.12      0.00
   3800.00    316.76      5.18      6.97      0.00
   3850.00    316.98      5.12      6.81      0.00
   3900.00    317.19      5.06      6.66      0.00
   3950.00    317.41      5.00      6.50      0.00
   4000.00    317.63      4.94      6.35      0.00
   4050.00    317.85      4.88      6.20      0.00
   4100.00    318.07      4.82      6.04      0.00
   4150.00    318.28      4.76      5.89      0.00
   4200.00    318.50      4.70      5.73      0.00
   4250.00    318.72      4.64      5.58      0.00
   4300.00    318.94      4.58      5.42      0.00
   4350.00    319.15      4.52      5.27      0.00
   4400.00    319.38      4.46      5.13      0.00
   4450.00    319.62      4.42      5.05      0.00
   4500.00    319.87      4.37      4.97      0.00
   4550.00    320.12      4.32      4.89      0.00
   4600.00    320.36      4.28      4.82      0.00
   4650.00    320.61      4.23      4.74      0.00
   4700.00    320.85      4.18      4.66      0.00
   4750.00    321.10      4.14      4.58      0.00
   4800.00    321.34      4.09      4.50      0.00
   4850.00    321.59      4.04      4.43      0.00
   4900.00    321.84      4.00      4.35      0.00
   4950.00    322.08      3.95      4.27      0.00
   5000.00    322.33      3.91      4.19      0.00
   5050.00    322.57      3.86      4.11      0.00
   5100.00    322.83      3.81      4.04      0.00
   5150.00    323.13      3.74      4.00      0.00
   5200.00    323.42      3.67      3.96      0.00
   5250.00    323.72      3.60      3.92      0.00
   5300.00    324.01      3.54      3.88      0.00
   5350.00    324.31      3.47      3.84      0.00
   5400.00    324.61      3.40      3.79      0.00
   5450.00    324.90      3.33      3.75      0.00
   5500.00    325.20      3.26      3.71      0.00
   5550.00    325.49      3.19      3.67      0.00
   5600.00    325.79      3.13      3.63      0.00
   5650.00    326.09      3.06      3.59      0.00
   5700.00    326.38      2.99      3.54      0.00
   5750.00    326.68      2.92      3.50      0.00
   5800.00    326.97      2.85      3.46      0.00
   5850.00    327.27      2.79      3.42      0.00
   5900.00    327.56      2.74      3.35      0.00
   5950.00    327.85      2.70      3.29      0.00
   6000.00    328.13      2.65      3.23      0.00
   6050.00    328.42      2.61      3.16      0.00
   6100.00    328.71      2.56      3.10      0.00
   6150.00    329.00      2.52      3.03      0.00
   6200.00    329.29      2.47      2.97      0.00
   6250.00    329.58      2.43      2.90      0.00
   6300.00    329.86      2.38      2.84      0.00
   6350.00    330.15      2.34      2.78      0.00
   6400.00    330.44      2.29      2.71      0.00
   6450.00    330.73      2.25      2.65      0.00
   6500.00    331.02      2.20      2.58      0.00
   6550.00    331.31      2.16      2.52      0.00
   6600.00    331.60      2.11      2.45      0.00
   6650.00    331.88      2.07      2.39      0.00
   6700.00    332.13      2.03      2.29      0.00
   6750.00    332.36      2.01      2.17      0.00
   6800.00    332.59      1.98      2.05      0.00
   6850.00    332.81      1.95      1.93      0.00
   6900.00    333.04      1.93      1.81      0.00
   6950.00    333.27      1.90      1.69      0.00
   7000.00    333.49      1.87      1.57      0.00
   7050.00    333.72      1.85      1.45      0.00
   7100.00    333.95      1.82      1.33      0.00
   7150.00    334.17      1.79      1.21      0.00
   7200.00    334.40      1.77      1.09      0.00
   7250.00    334.63      1.74      0.97      0.00
   7300.00    334.85      1.71      0.85      0.00
   7350.00    335.08      1.69      0.73      0.00
   7400.00    335.30      1.66      0.61      0.00
   7450.00    335.53      1.63      0.49      0.00
   7500.00    335.76      1.61      0.37      0.00
   7550.00    335.98      1.58      0.25      0.00
   7600.00    336.19      1.55      0.10      0.00
   7650.00    336.37      1.53     -0.06      0.00
   7700.00    336.56      1.51     -0.22      0.00
   7750.00    336.75      1.48     -0.39      0.00
   7800.00    336.93      1.46     -0.55      0.00
   7850.00    337.12      1.44     -0.71      0.00
   7900.00    337.31      1.41     -0.88      0.00
   7950.00    337.49      1.39     -1.04      0.00
   8000.00    337.68      1.36     -1.21      0.00
   8050.00    337.87      1.34     -1.37      0.00
   8100.00    338.05      1.32     -1.53      0.00
   8150.00    338.24      1.29     -1.70      0.00
   8200.00    338.43      1.27     -1.86      0.00
   8250.00    338.61      1.24     -2.03      0.00
   8300.00    338.80      1.22     -2.19      0.00
   8350.00    338.99      1.20     -2.35      0.00
   8400.00    339.17      1.17     -2.52      0.00
   8450.00    339.36      1.15     -2.68      0.00
   8500.00    339.55      1.13     -2.84      0.00
   8550.00    339.73      1.10     -3.01      0.00
   8600.00    339.91      1.08     -3.20      0.00
   8650.00    340.08      1.06     -3.41      0.00
   8700.00    340.25      1.04     -3.61      0.00
   8750.00    340.42      1.02     -3.82      0.00
   8800.00    340.59      1.00     -4.03      0.00
   8850.00    340.76      0.97     -4.23      0.00
   8900.00    340.93      0.95     -4.44      0.00
   8950.00    341.09      0.93     -4.65      0.00
   9000.00    341.26      0.91     -4.85      0.00
   9050.00    341.43      0.89     -5.06      0.00
   9100.00    341.60      0.87     -5.27      0.00
   9150.00    341.77      0.85     -5.47      0.00
   9200.00    341.94      0.83     -5.68      0.00
   9250.00    342.11      0.81     -5.89      0.00
   9300.00    342.28      0.79     -6.10      0.00
   9350.00    342.45      0.76     -6.30      0.00
   9400.00    342.62      0.74     -6.51      0.00
   9450.00    342.79      0.72     -6.72      0.00
   9500.00    342.96      0.70     -6.92      0.00
   9550.00    343.13      0.68     -7.13      0.00
   9600.00    343.30      0.66     -7.34      0.00
   9650.00    343.47      0.64     -7.54      0.00
   9700.00    343.63      0.62     -7.76      0.00
   9750.00    343.77      0.61     -7.99      0.00
   9800.00    343.91      0.59     -8.21      0.00
   9850.00    344.06      0.58     -8.44      0.00
   9900.00    344.20      0.56     -8.67      0.00
   9950.00    344.34      0.55     -8.90      0.00
  10000.00    344.48      0.54     -9.13      0.00
  10050.00    344.63      0.52     -9.36      0.00
  10100.00    344.77      0.51     -9.59      0.00
  10150.00    344.91      0.50     -9.82      0.00
  10200.00    345.05      0.48    -10.05      0.00
  10250.00    345.19      0.47    -10.27      0.00
  10300.00    345.34      0.45    -10.50      0.00
  10350.00    345.48      0.44    -10.73      0.00
  10400.00    345.62      0.43    -10.96      0.00
  10450.00    345.76      0.41    -11.19      0.00
  10500.00    345.91      0.40    -11.42      0.00
  10550.00    346.05      0.39    -11.65      0.00
  10600.00    346.19      0.37    -11.88      0.00
  10650.00    346.33      0.36    -12.11      0.00
  10700.00    346.48      0.34    -12.34      0.00
  10750.00    346.62      0.33    -12.56      0.00
  10800.00    346.76      0.32    -12.79      0.00
  10850.00    346.90      0.30    -13.02      0.00
  10900.00    347.04      0.29    -13.25      0.00
  10950.00    347.19      0.28    -13.48      0.00
  11000.00    347.31      0.27    -13.72      0.00
  11050.00    347.43      0.26    -13.97      0.00
  11100.00    347.55      0.25    -14.22      0.00
  11150.00    347.67      0.24    -14.46      0.00
  11200.00    347.79      0.23    -14.71      0.00
  11250.00    347.91      0.23    -14.96      0.00
  11300.00    348.04      0.22    -15.21      0.00
  11350.00    348.16      0.21    -15.45      0.00
  11400.00    348.28      0.20    -15.70      0.00
  11450.00    348.40      0.20    -15.95      0.00
  11500.00    348.52      0.19    -16.20      0.00
  11550.00    348.64      0.18    -16.45      0.00
  11600.00    348.76      0.17    -16.69      0.00
  11650.00    348.88      0.16    -16.94      0.00
  11700.00    349.00      0.16    -17.20      0.00
  11750.00    349.11      0.15    -17.48      0.00
  11800.00    349.23      0.15    -17.76      0.00
  11850.00    349.34      0.14    -18.03      0.00
  11900.00    349.46      0.14    -18.31      0.00
  11950.00    349.57      0.13    -18.59      0.00
  12000.00    349.69      0.13    -18.87      0.00
  12050.00    349.81      0.12    -19.15      0.00
  12100.00    349.92      0.12    -19.42      0.00
  12150.00    350.04      0.11    -19.70      0.00
  12200.00    350.15      0.11    -19.98      0.00
  12250.00    350.27      0.10    -20.26      0.00
  12300.00    350.38      0.10    -20.54      0.00
  12350.00    350.50      0.09    -20.81      0.00
  12400.00    350.62      0.09    -21.09      0.00
  12450.00    350.73      0.08    -21.37      0.00
  12500.00    350.86      0.08    -21.67      0.00
  12550.00    350.98      0.08    -21.97      0.00
  12600.00    351.11      0.08    -22.27      0.00
  12650.00    351.24      0.07    -22.57      0.00
  12700.00    351.36      0.07    -22.88      0.00
  12750.00    351.49      0.07    -23.18      0.00
  12800.00    351.61      0.07    -23.48      0.00
  12850.00    351.74      0.06    -23.78      0.00
  12900.00    351.87      0.06    -24.08      0.00
  12950.00    351.99      0.06    -24.38      0.00
  13000.00    352.12      0.05    -24.68      0.00
  13050.00    352.24      0.05    -24.99      0.00
  13100.00    352.37      0.05    -25.29      0.00
  13150.00    352.50      0.05    -25.59      0.00
  13200.00    352.62      0.04    -25.89      0.00
  13250.00    352.75      0.04    -26.19      0.00
  13300.00    352.87      0.04    -26.49      0.00
  13350.00    353.02      0.04    -26.79      0.00
  13400.00    353.16      0.04    -27.08      0.00
  13450.00    353.31      0.04    -27.38      0.00
  13500.00    353.45      0.03    -27.67      0.00
  13550.00    353.60      0.03    -27.96      0.00
  13600.00    353.74      0.03    -28.26      0.00
  13650.00    353.89      0.03    -28.55      0.00
  13700.00    354.03      0.03    -28.85      0.00
  13750.00    354.18      0.03    -29.14      0.00
  13800.00    354.32      0.03    -29.43      0.00
  13850.00    354.47      0.03    -29.73      0.00
  13900.00    354.61      0.02    -30.02      0.00
  13950.00    354.76      0.02    -30.32      0.00
  14000.00    354.90      0.02    -30.61      0.00
  14050.00    355.05      0.02    -30.90      0.00
  14100.00    355.19      0.02    -31.20      0.00
  14150.00    355.34      0.02    -31.49      0.00
  14200.00    355.48      0.02    -31.79      0.00
  14250.00    355.63      0.02    -32.08      0.00
  14300.00    355.83      0.01    -32.29      0.00
  14350.00    356.04      0.01    -32.49      0.00
  14400.00    356.24      0.01    -32.69      0.00
  14450.00    356.45      0.01    -32.90      0.00
  14500.00    356.66      0.01    -33.10      0.00
  14550.00    356.86      0.01    -33.30      0.00
  14600.00    357.07      0.01    -33.51      0.00
  14650.00    357.27      0.01    -33.71      0.00
  14700.00    357.48      0.01    -33.91      0.00
  14750.00    357.68      0.01    -34.12      0.00
  14800.00    357.89      0.01    -34.32      0.00
  14850.00    358.10      0.01    -34.52      0.00
  14900.00    358.30      0.01    -34.72      0.00
  14950.00    358.51      0.01    -34.93      0.00
  15000.00    358.71      0.01    -35.13      0.00
  15050.00    358.92      0.01    -35.33      0.00
  15100.00    359.13      0.01    -35.54      0.00
  15150.00    359.33      0.01    -35.74      0.00
  15200.00    359.54      0.01    -35.94      0.00
  15250.00    359.74      0.01    -36.15      0.00
  15300.00    359.95      0.01    -36.35      0.00
  15350.00    360.30      0.01    -36.42      0.00
  15400.00    360.90      0.01    -36.26      0.00
  15450.00    361.51      0.01    -36.09      0.00
  15500.00    362.11      0.00    -35.93      0.00
  15550.00    362.72      0.00    -35.76      0.00
  15600.00    363.33      0.00    -35.60      0.00
  15650.00    363.93      0.00    -35.43      0.00
  15700.00    364.54      0.00    -35.27      0.00
  15750.00    365.15      0.00    -35.10      0.00
  15800.00    365.75      0.00    -34.94      0.00
  15850.00    366.36      0.00    -34.77      0.00
  15900.00    366.97      0.00    -34.61      0.00
  15950.00    367.57      0.00    -34.44      0.00
  16000.00    368.18      0.00    -34.28      0.00
  16050.00    368.78      0.00    -34.11      0.00
  16100.00    369.39      0.00    -33.95      0.00
  16150.00    370.00      0.00    -33.78      0.00
  16200.00    370.60      0.00    -33.62      0.00
  16250.00    371.21      0.00    -33.45      0.00
  16300.00    371.82      0.00    -33.29      0.00
  16350.00    372.42      0.00    -33.12      0.00
  16400.00    373.03      0.00    -32.96      0.00
  16450.00    373.64      0.00    -32.79      0.00
  16500.00    374.24      0.00    -32.63      0.00
  16550.00    374.85      0.00    -32.46      0.00
  16600.00    375.45      0.00    -32.30      0.00
  16650.00    376.63      0.00    -32.03      0.00
  16700.00    377.96      0.00    -31.74      0.00
  16750.00    379.29      0.00    -31.45      0.00
  16800.00    380.61      0.00    -31.16      0.00
  16850.00    381.94      0.00    -30.87      0.00
  16900.00    383.27      0.00    -30.58      0.00
  16950.00    384.59      0.00    -30.29      0.00
  17000.00    385.92      0.00    -30.00      0.00
  17050.00    387.25      0.00    -29.71      0.00
  17100.00    388.57      0.00    -29.42      0.00
  17150.00    389.90      0.00    -29.13      0.00
  17200.00    391.22      0.00    -28.84      0.00
  17250.00    392.55      0.00    -28.55      0.00
  17300.00    393.88      0.00    -28.26      0.00
  17350.00    395.20      0.00    -27.97      0.00
  17400.00    396.53      0.00    -27.68      0.00
  17450.00    397.86      0.00    -27.39      0.00
  17500.00    399.18      0.00    -27.09      0.00
  17550.00    400.51      0.00    -26.80      0.00
  17600.00    401.84      0.00    -26.51      0.00
  17650.00    403.16      0.00    -26.22      0.00
  17700.00    404.49      0.00    -25.93      0.00
  17750.00    405.82      0.00    -25.64      0.00
  17800.00    407.14      0.00    -25.35      0.00
  17850.00    408.47      0.00    -25.06      0.00
  17900.00    409.80      0.00    -24.77      0.00
  17950.00    411.12      0.00    -24.48      0.00
  18000.00    412.45      0.00    -24.19      0.00
  18050.00    413.78      0.00    -23.90      0.00
  18100.00    415.10      0.00    -23.61      0.00
  18150.00    416.43      0.00    -23.32      0.00
  18200.00    417.76      0.00    -23.03      0.00
  18250.00    419.08      0.00    -22.74      0.00
  18300.00    420.41      0.00    -22.45      0.00
  18350.00    421.73      0.00    -22.16      0.00
  18400.00    423.06      0.00    -21.87      0.00
  18450.00    424.39      0.00    -21.58      0.00
  18500.00    425.71      0.00    -21.29      0.00
  18550.00    427.04      0.00    -21.00      0.00
  18600.00    428.37      0.00    -20.71      0.00
  18650.00    429.69      0.00    -20.42      0.00
  18700.00    431.08      0.00    -20.21      0.00
  18750.00    432.59      0.00    -20.17      0.00
  18800.00    434.11      0.00    -20.14      0.00
  18850.00    435.62      0.00    -20.10      0.00
  18900.00    437.13      0.00    -20.06      0.00
  18950.00    438.65      0.00    -20.03      0.00
  19000.00    440.16      0.00    -19.99      0.00
  19050.00    441.67      0.00    -19.95      0.00
  19100.00    443.19      0.00    -19.92      0.00
  19150.00    444.70      0.00    -19.88      0.00
  19200.00    446.21      0.00    -19.84      0.00
  19250.00    447.73      0.00    -19.81      0.00
  19300.00    449.24      0.00    -19.77      0.00
  19350.00    450.75      0.00    -19.73      0.00
  19400.00    452.26      0.00    -19.70      0.00
  19450.00    453.78      0.00    -19.66      0.00
  19500.00    455.29      0.00    -19.62      0.00
  19550.00    456.80      0.00    -19.59      0.00
  19600.00    458.32      0.00    -19.55      0.00
  19650.00    459.83      0.00    -19.51      0.00
  19700.00    461.34      0.00    -19.48      0.00
  19750.00    462.86      0.00    -19.44      0.00
  19800.00    464.37      0.00    -19.40      0.00
  19850.00    465.88      0.00    -19.37      0.00
  19900.00    467.40      0.00    -19.33      0.00
  19950.00    468.91      0.00    -19.29      0.00
  20000.00    470.42      0.00    -19.26      0.00
  20050.00    471.94      0.00    -19.22      0.00
  20100.00    473.45      0.00    -19.18      0.00
  20150.00    474.96      0.00    -19.15      0.00
  20200.00    476.47      0.00    -19.11      0.00
  20250.00    477.99      0.00    -19.07      0.00
  20300.00    479.50      0.00    -19.04      0.00
  20350.00    481.01      0.00    -19.00      0.00
  20400.00    482.53      0.00    -18.96      0.00
  20450.00    484.04      0.00    -18.93      0.00
  20500.00    485.55      0.00    -18.89      0.00
  20550.00    487.07      0.00    -18.85      0.00
  20600.00    488.58      0.00    -18.82      0.00
  20650.00    490.09      0.00    -18.78      0.00
  20700.00    491.61      0.00    -18.75      0.00
  20750.00    493.17      0.00    -18.78      0.00
  20800.00    494.74      0.00    -18.81      0.00
  20850.00    496.30      0.00    -18.83      0.00
  20900.00    497.86      0.00    -18.86      0.00
  20950.00    499.43      0.00    -18.89      0.00
  21000.00    500.99      0.00    -18.92      0.00
  21050.00    502.55      0.00    -18.95      0.00
  21100.00    504.12      0.00    -18.98      0.00
  21150.00    505.68      0.00    -19.00      0.00
  21200.00    507.24      0.00    -19.03      0.00
  21250.00    508.81      0.00    -19.06      0.00
  21300.00    510.37      0.00    -19.09      0.00
  21350.00    511.93      0.00    -19.12      0.00
  21400.00    513.50      0.00    -19.14      0.00
  21450.00    515.06      0.00    -19.17      0.00
  21500.00    516.62      0.00    -19.20      0.00
  21550.00    518.19      0.00    -19.23      0.00
  21600.00    519.75      0.00    -19.26      0.00
  21650.00    521.31      0.00    -19.28      0.00
  21700.00    522.88      0.00    -19.31      0.00
  21750.00    524.44      0.00    -19.34      0.00
  21800.00    526.00      0.00    -19.37      0.00
  21850.00    527.57      0.00    -19.40      0.00
  21900.00    529.13      0.00    -19.43      0.00
  21950.00    530.69      0.00    -19.45      0.00
  22000.00    532.26      0.00    -19.48      0.00
  22050.00    533.82      0.00    -19.51      0.00
  22100.00    535.39      0.00    -19.54      0.00
  22150.00    536.95      0.00    -19.57      0.00
  22200.00    538.51      0.00    -19.59      0.00
  22250.00    540.08      0.00    -19.62      0.00
  22300.00    541.64      0.00    -19.65      0.00
  22350.00    543.20      0.00    -19.68      0.00
  22400.00    544.77      0.00    -19.71      0.00
  22450.00    546.33      0.00    -19.74      0.00
  22500.00    547.89      0.00    -19.76      0.00
  22550.00    549.46      0.00    -19.79      0.00
  22600.00    551.02      0.00    -19.82      0.00
  22650.00    552.58      0.00    -19.85      0.00
  22700.00    554.15      0.00    -19.88      0.00
  22750.00    555.71      0.00    -19.90      0.00
  22800.00    557.27      0.00    -19.93      0.00
  22850.00    558.84      0.00    -19.96      0.00
  22900.00    560.40      0.00    -19.99      0.00
  22950.00    561.96      0.00    -20.02      0.00
  23000.00    563.53      0.00    -20.04      0.00
  23050.00    565.09      0.00    -20.07      0.00
  23100.00    566.65      0.00    -20.10      0.00
  23150.00    568.22      0.00    -20.13      0.00
  23200.00    569.78      0.00    -20.16      0.00
  23250.00    571.34      0.00    -20.19      0.00
  23300.00    572.91      0.00    -20.21      0.00
  23350.00    574.47      0.00    -20.24      0.00
  23400.00    576.03      0.00    -20.27      0.00
  23450.00    577.60      0.00    -20.30      0.00
  23500.00    579.16      0.00    -20.33      0.00
  23550.00    580.72      0.00    -20.35      0.00
  23600.00    582.29      0.00    -20.38      0.00
  23650.00    583.85      0.00    -20.41      0.00
  23700.00    585.41      0.00    -20.44      0.00
  23750.00    586.98      0.00    -20.47      0.00
  23800.00    588.54      0.00    -20.49      0.00
  23850.00    590.10      0.00    -20.52      0.00
  23900.00    591.73      0.00    -20.56      0.00
  23950.00    593.45      0.00    -20.60      0.00
  24000.00    595.18      0.00    -20.65      0.00
  24050.00    596.90      0.00    -20.70      0.00
  24100.00    598.63      0.00    -20.74      0.00
  24150.00    600.35      0.00    -20.79      0.00
  24200.00    602.08      0.00    -20.84      0.00
  24250.00    603.80      0.00    -20.88      0.00
  24300.00    605.53      0.00    -20.93      0.00
  24350.00    607.25      0.00    -20.98      0.00
  24400.00    608.98      0.00    -21.02      0.00
  24450.00    610.70      0.00    -21.07      0.00
  24500.00    612.43      0.00    -21.11      0.00
  24550.00    614.15      0.00    -21.16      0.00
  24600.00    615.88      0.00    -21.21      0.00
  24650.00    617.60      0.00    -21.25      0.00
  24700.00    619.33      0.00    -21.30      0.00
  24750.00    621.05      0.00    -21.35      0.00
  24800.00    622.78      0.00    -21.39      0.00
  24850.00    624.50      0.00    -21.44      0.00
  24900.00    626.22      0.00    -21.49      0.00
  24950.00    627.95      0.00    -21.53      0.00
  25000.00    629.67      0.00    -21.58      0.00
  25050.00    631.40      0.00    -21.62      0.00
  25100.00    633.12      0.00    -21.67      0.00
  25150.00    634.85      0.00    -21.72      0.00
  25200.00    636.57      0.00    -21.76      0.00
  25250.00    638.30      0.00    -21.81      0.00
  25300.00    640.02      0.00    -21.86      0.00
  25350.00    641.75      0.00    -21.90      0.00
  25400.00    643.47      0.00    -21.95      0.00
  25450.00    645.20      0.00    -22.00      0.00
  25500.00    646.92      0.00    -22.04      0.00
  25550.00    648.65      0.00    -22.09      0.00
  25600.00    650.37      0.00    -22.13      0.00
  25650.00    652.10      0.00    -22.18      0.00
  25700.00    653.82      0.00    -22.23      0.00
  25750.00    655.55      0.00    -22.27      0.00
  25800.00    657.27      0.00    -22.32      0.00
  25850.00    659.00      0.00    -22.37      0.00
  25900.00    660.72      0.00    -22.41      0.00
  25950.00    662.45      0.00    -22.46      0.00
  26000.00    664.17      0.00    -22.51      0.00
  26050.00    665.90      0.00    -22.55      0.00
  26100.00    667.62      0.00    -22.60      0.00
  26150.00    669.35      0.00    -22.64      0.00
  26200.00    671.07      0.00    -22.69      0.00
  26250.00    672.80      0.00    -22.74      0.00
  26300.00    674.52      0.00    -22.78      0.00
  26350.00    676.25      0.00    -22.83      0.00
  26400.00    677.97      0.00    -22.88      0.00
  26450.00    679.69      0.00    -22.92      0.00
  26500.00    681.47      0.00    -22.97      0.00
  26550.00    683.41      0.00    -23.00      0.00
  26600.00    685.34      0.00    -23.02      0.00
  26650.00    687.28      0.00    -23.05      0.00
  26700.00    689.22      0.00    -23.08      0.00
  26750.00    691.15      0.00    -23.11      0.00
  26800.00    693.09      0.00    -23.14      0.00
  26850.00    695.03      0.00    -23.17      0.00
  26900.00    696.97      0.00    -23.20      0.00
  26950.00    698.90      0.00    -23.23      0.00
  27000.00    700.84      0.00    -23.26      0.00
  27050.00    702.78      0.00    -23.29      0.00
  27100.00    704.71      0.00    -23.32      0.00
  27150.00    706.65      0.00    -23.35      0.00
  27200.00    708.59      0.00    -23.38      0.00
  27250.00    710.52      0.00    -23.41      0.00
  27300.00    712.46      0.00    -23.44      0.00
  27350.00    714.40      0.00    -23.47      0.00
  27400.00    716.33      0.00    -23.50      0.00
  27450.00    718.27      0.00    -23.53      0.00
  27500.00    720.21      0.00    -23.56      0.00
  27550.00    722.15      0.00    -23.59      0.00
  27600.00    724.08      0.00    -23.62      0.00
  27650.00    726.02      0.00    -23.65      0.00
  27700.00    727.96      0.00    -23.68      0.00
  27750.00    729.89      0.00    -23.71      0.00
  27800.00    731.83      0.00    -23.74      0.00
  27850.00    733.77      0.00    -23.77      0.00
  27900.00    735.70      0.00    -23.80      0.00
  27950.00    737.64      0.00    -23.83      0.00
  28000.00    739.58      0.00    -23.86      0.00
  28050.00    741.52      0.00    -23.89      0.00
  28100.00    743.45      0.00    -23.91      0.00
  28150.00    745.39      0.00    -23.94      0.00
  28200.00    747.33      0.00    -23.97      0.00
  28250.00    749.26      0.00    -24.00      0.00
  28300.00    751.20      0.00    -24.03      0.00
  28350.00    753.14      0.00    -24.06      0.00
  28400.00    755.07      0.00    -24.09      0.00
  28450.00    757.01      0.00    -24.12      0.00
  28500.00    758.95      0.00    -24.15      0.00
  28550.00    760.89      0.00    -24.18      0.00
  28600.00    762.82      0.00    -24.21      0.00
  28650.00    764.76      0.00    -24.24      0.00
  28700.00    766.70      0.00    -24.27      0.00
  28750.00    768.63      0.00    -24.30      0.00
  28800.00    770.57      0.00    -24.33      0.00
  28850.00    772.51      0.00    -24.36      0.00
  28900.00    774.44      0.00    -24.39      0.00
  28950.00    776.38      0.00    -24.42      0.00
  29000.00    778.32      0.00    -24.45      0.00
  29050.00    780.26      0.00    -24.48      0.00
  29100.00    782.19      0.00    -24.51      0.00
  29150.00    784.13      0.00    -24.54      0.00
  29200.00    786.07      0.00    -24.57      0.00
  29250.00    788.00      0.00    -24.60      0.00
  29300.00    789.94      0.00    -24.63      0.00