   1000.00    299.48     17.39
      0.00    299.48     17.39    -10.00      0.00
     50.00    299.48     17.39    -10.00      0.00
    100.00    299.48     17.39    -10.00      0.00
    150.00    299.50     17.32    -10.00      0.00
    200.00    299.52     17.25    -10.00      0.00
    250.00    299.54     17.18    -10.00      0.00
    300.00    299.56     17.11    -10.00      0.00
    350.00    299.64     16.88    -10.00      0.00
    400.00    299.76     16.55    -10.00      0.00
    450.00    299.87     16.22    -10.00      0.00
    500.00    299.99     15.90    -10.00      0.00
    550.00    300.14     15.53    -10.00      0.00
    600.00    300.39     15.08    -10.00      0.00
    650.00    300.63     14.62    -10.00      0.00
    700.00    300.87     14.17    -10.00      0.00
    750.00    301.12     13.72    -10.00      0.00
    800.00    301.41     13.31    -10.00      0.00
    850.00    301.70     12.92    -10.00      0.00
    900.00    302.00     12.52    -10.00      0.00
    950.00    302.29     12.13    -10.00      0.00
   1000.00    302.59     11.77    -10.00      0.00
   1050.00    302.90     11.45    -10.00      0.00
   1100.00    303.21     11.13    -10.00      0.00
   1150.00    303.51     10.81    -10.00      0.00
   1200.00    303.82     10.50    -10.00      0.00
   1250.00    304.11     10.25    -10.00      0.00
   1300.00    304.40     10.01    -10.00      0.00
   1350.00    304.70      9.78    -10.00      0.00
   1400.00    304.99      9.54    -10.00      0.00
   1450.00    305.27      9.31    -10.00      0.00
   1500.00    305.54      9.14    -10.00      0.00
   1550.00    305.81      8.96    -10.00      0.00
   1600.00    306.08      8.78    -10.00      0.00
   1650.00    306.35      8.61    -10.00      0.00
   1700.00    306.61      8.44    -10.00      0.00
   1750.00    306.86      8.30    -10.00      0.00
   1800.00    307.11      8.16    -10.00      0.00
   1850.00    307.37      8.01    -10.00      0.00
   1900.00    307.62      7.87    -10.00      0.00
   1950.00    307.87      7.74    -10.00      0.00
   2000.00    308.11      7.61    -10.00      0.00
   2050.00    308.35      7.49    -10.00      0.00
   2100.00    308.59      7.37    -10.00      0.00
   2150.00    308.84      7.24    -10.00      0.00
   2200.00    309.08      7.13    -10.00      0.00
   2250.00    309.32      7.02    -10.00      0.00
   2300.00    309.55      6.92    -10.00      0.00
   2350.00    309.79      6.81    -10.00      0.00
   2400.00    310.03      6.70    -10.00      0.00
   2450.00    310.27      6.60    -10.00      0.00
   2500.00    310.51      6.51    -10.00      0.00
   2550.00    310.75      6.42    -10.00      0.00
   2600.00    310.99      6.33    -10.00      0.00
   2650.00    311.23      6.23    -10.00      0.00
   2700.00    311.47      6.14    -10.00      0.00
   2750.00    311.71      6.06    -10.00      0.00
   2800.00    311.95      5.98    -10.00      0.00
   2850.00    312.19      5.90    -10.00      0.00
   2900.00    312.43      5.82    -10.00      0.00
   2950.00    312.67      5.74    -10.00      0.00
   3000.00    312.91      5.66    -10.00      0.00
   3050.00    313.14      5.58    -10.00      0.00
   3100.00    313.38      5.50    -10.00      0.00
   3150.00    313.62      5.42    -10.00      0.00
   3200.00    313.86      5.34    -10.00      0.00
   3250.00    314.10      5.26    -10.00      0.00
   3300.00    314.34      5.18    -10.00      0.00
   3350.00    314.58      5.10    -10.00      0.00
   3400.00    314.83      5.02    -10.00      0.00
   3450.00    315.07      4.94    -10.00      0.00
   3500.00    315.31      4.86    -10.00      0.00
   3550.00    315.55      4.78    -10.00      0.00
   3600.00    315.79      4.71    -10.00      0.00
   3650.00    316.04      4.63    -10.00      0.00
   3700.00    316.28      4.56    -10.00      0.00
   3750.00    316.52      4.48    -10.00      0.00
   3800.00    316.77      4.41    -10.00      0.00
   3850.00    317.02      4.34    -10.00      0.00
   3900.00    317.26      4.27    -10.00      0.00
   3950.00    317.51      4.20    -10.00      0.00
   4000.00    317.76      4.14    -10.00      0.00
   4050.00    318.01      4.07    -10.00      0.00
   4100.00    318.25      4.00    -10.00      0.00
   4150.00    318.51      3.94    -10.00      0.00
   4200.00    318.76      3.88    -10.00      0.00
   4250.00    319.02      3.81    -10.00      0.00
   4300.00    319.28      3.75    -10.00      0.00
   4350.00    319.53      3.69    -10.00      0.00
   4400.00    319.79      3.63    -10.00      0.00
   4450.00    320.05      3.57    -10.00      0.00
   4500.00    320.32      3.51    -10.00      0.00
   4550.00    320.59      3.45    -10.00      0.00
   4600.00    320.86      3.39    -10.00      0.00
   4650.00    321.12      3.33    -10.00      0.00
   4700.00    321.39      3.27    -10.00      0.00
   4750.00    321.66      3.21    -10.00      0.00
   4800.00    321.93      3.15    -10.00      0.00
   4850.00    322.21      3.09    -10.00      0.00
   4900.00    322.48      3.03    -10.00      0.00
   4950.00    322.76      2.97    -10.00      0.00
   5000.00    323.03      2.91    -10.00      0.00
   5050.00    323.31      2.85    -10.00      0.00
   5100.00    323.58      2.79    -10.00      0.00
   5150.00    323.85      2.74    -10.00      0.00
   5200.00    324.11      2.68    -10.00      0.00
   5250.00    324.38      2.62    -10.00      0.00
   5300.00    324.65      2.57    -10.00      0.00
   5350.00    324.92      2.51    -10.00      0.00
   5400.00    325.19      2.45    -10.00      0.00
   5450.00    325.45      2.40    -10.00      0.00
   5500.00    325.71      2.34    -10.00      0.00
   5550.00    325.98      2.29    -10.00      0.00
   5600.00    326.24      2.24    -10.00      0.00
   5650.00    326.50      2.18    -10.00      0.00
   5700.00    326.76      2.13    -10.00      0.00
   5750.00    327.02      2.07    -10.00      0.00
   5800.00    327.28      2.02    -10.00      0.00
   5850.00    327.53      1.97    -10.00      0.00
   5900.00    327.78      1.92    -10.00      0.00
   5950.00    328.03      1.87    -10.00      0.00
   6000.00    328.28      1.82    -10.00      0.00
   6050.00    328.53      1.77    -10.00      0.00
   6100.00    328.79      1.72    -10.00      0.00
   6150.00    329.04      1.67    -10.00      0.00
   6200.00    329.28      1.63    -10.00      0.00
   6250.00    329.52      1.58    -10.00      0.00
   6300.00    329.76      1.54    -10.00      0.00
   6350.00    330.00      1.50    -10.00      0.00
   6400.00    330.24      1.46    -10.00      0.00
   6450.00    330.48      1.42    -10.00      0.00
   6500.00    330.72      1.37    -10.00      0.00
   6550.00    330.96      1.33    -10.00      0.00
   6600.00    331.18      1.30    -10.00      0.00
   6650.00    331.41      1.27    -10.00      0.00
   6700.00    331.63      1.24    -10.00      0.00
   6750.00    331.86      1.21    -10.00      0.00
   6800.00    332.08      1.18    -10.00      0.00
   6850.00    332.31      1.14    -10.00      0.00
   6900.00    332.53      1.11    -10.00      0.00
   6950.00    332.76      1.08    -10.00      0.00
   7000.00    332.97      1.06    -10.00      0.00
   7050.00    333.18      1.04    -10.00      0.00
   7100.00    333.39      1.02    -10.00      0.00
   7150.00    333.60      0.99    -10.00      0.00
   7200.00    333.80      0.97    -10.00      0.00
   7250.00    334.01      0.95    -10.00      0.00
   7300.00    334.22      0.93    -10.00      0.00
   7350.00    334.43      0.91    -10.00      0.00
   7400.00    334.63      0.89    -10.00      0.00
   7450.00    334.83      0.87    -10.00      0.00
   7500.00    335.02      0.85    -10.00      0.00
   7550.00    335.21      0.83    -10.00      0.00
   7600.00    335.41      0.81    -10.00      0.00
   7650.00    335.60      0.80    -10.00      0.00
   7700.00    335.80      0.78    -10.00      0.00
   7750.00    335.99      0.76    -10.00      0.00
   7800.00    336.18      0.74    -10.00      0.00
   7850.00    336.37      0.72    -10.00      0.00
   7900.00    336.56      0.70    -10.00      0.00
   7950.00    336.74      0.68    -10.00      0.00
   8000.00    336.93      0.67    -10.00      0.00
   8050.00    337.11      0.65    -10.00      0.00
   8100.00    337.30      0.63    -10.00      0.00
   8150.00    337.48      0.61    -10.00      0.00
   8200.00    337.66      0.59    -10.00      0.00
   8250.00    337.85      0.57    -10.00      0.00
   8300.00    338.03      0.55    -10.00      0.00
   8350.00    338.21      0.53    -10.00      0.00
   8400.00    338.39      0.51    -10.00      0.00
   8450.00    338.56      0.49    -10.00      0.00
   8500.00    338.74      0.48    -10.00      0.00
   8550.00    338.92      0.46    -10.00      0.00
   8600.00    339.10      0.44    -10.00      0.00
   8650.00    339.27      0.42    -10.00      0.00
   8700.00    339.45      0.40    -10.00      0.00
   8750.00    339.63      0.38    -10.00      0.00
   8800.00    339.80      0.37    -10.00      0.00
   8850.00    339.96      0.35    -10.00      0.00
   8900.00    340.13      0.34    -10.00      0.00
   8950.00    340.29      0.33    -10.00      0.00
   9000.00    340.45      0.31    -10.00      0.00
   9050.00    340.61      0.30    -10.00      0.00
   9100.00    340.78      0.29    -10.00      0.00
   9150.00    340.94      0.27    -10.00      0.00
   9200.00    341.10      0.26    -10.00      0.00
   9250.00    341.26      0.25    -10.00      0.00
   9300.00    341.42      0.24    -10.00      0.00
   9350.00    341.56      0.23    -10.00      0.00
   9400.00    341.70      0.22    -10.00      0.00
   9450.00    341.83      0.22    -10.00      0.00
   9500.00    341.97      0.21    -10.00      0.00
   9550.00    342.10      0.21    -10.00      0.00
   9600.00    342.24      0.20    -10.00      0.00
   9650.00    342.37      0.19    -10.00      0.00
   9700.00    342.51      0.19    -10.00      0.00
   9750.00    342.64      0.18    -10.00      0.00
   9800.00    342.77      0.18    -10.00      0.00
   9850.00    342.91      0.17    -10.00      0.00
   9900.00    343.02      0.17    -10.00      0.00
   9950.00    343.12      0.16    -10.00      0.00
  10000.00    343.23      0.16    -10.00      0.00
  10050.00    343.33      0.16    -10.00      0.00
  10100.00    343.43      0.16    -10.00      0.00
  10150.00    343.54      0.15    -10.00      0.00
  10200.00    343.64      0.15    -10.00      0.00
  10250.00    343.74      0.15    -10.00      0.00
  10300.00    343.85      0.15    -10.00      0.00
  10350.00    343.95      0.14    -10.00      0.00
  10400.00    344.05      0.14    -10.00      0.00
  10450.00    344.16      0.14    -10.00      0.00
  10500.00    344.24      0.13    -10.00      0.00
  10550.00    344.32      0.13    -10.00      0.00
  10600.00    344.40      0.13    -10.00      0.00
  10650.00    344.48      0.13    -10.00      0.00
  10700.00    344.56      0.13    -10.00      0.00
  10750.00    344.64      0.12    -10.00      0.00
  10800.00    344.72      0.12    -10.00      0.00
  10850.00    344.80      0.12    -10.00      0.00
  10900.00    344.88      0.12    -10.00      0.00
  10950.00    344.95      0.11    -10.00      0.00
  11000.00    345.03      0.11    -10.00      0.00
  11050.00    345.11      0.11    -10.00      0.00
  11100.00    345.19      0.11    -10.00      0.00
  11150.00    345.27      0.10    -10.00      0.00
  11200.00    345.34      0.10    -10.00      0.00
  11250.00    345.42      0.10    -10.00      0.00
  11300.00    345.49      0.10    -10.00      0.00
  11350.00    345.56      0.09    -10.00      0.00
  11400.00    345.64      0.09    -10.00      0.00
  11450.00    345.71      0.09    -10.00      0.00
  11500.00    345.79      0.09    -10.00      0.00
  11550.00    345.86      0.08    -10.00      0.00
  11600.00    345.94      0.08    -10.00      0.00
  11650.00    346.01      0.08    -10.00      0.00
  11700.00    346.09      0.08    -10.00      0.00
  11750.00    346.16      0.07    -10.00      0.00
  11800.00    346.26      0.07    -10.00      0.00
  11850.00    346.35      0.07    -10.00      0.00
  11900.00    346.45      0.07    -10.00      0.00
  11950.00    346.54      0.06    -10.00      0.00
  12000.00    346.64      0.06    -10.00      0.00
  12050.00    346.73      0.06    -10.00      0.00
  12100.00    346.83      0.06    -10.00      0.00
  12150.00    346.92      0.06    -10.00      0.00
  12200.00    347.02      0.05    -10.00      0.00
  12250.00    347.11      0.05    -10.00      0.00
  12300.00    347.21      0.05    -10.00      0.00
  12350.00    347.30      0.05    -10.00      0.00
  12400.00    347.40      0.05    -10.00      0.00
  12450.00    347.50      0.04    -10.00      0.00
  12500.00    347.61      0.04    -10.00      0.00
  12550.00    347.79      0.04    -10.00      0.00
  12600.00    347.96      0.04    -10.00      0.00
  12650.00    348.13      0.04    -10.00      0.00
  12700.00    348.31      0.04    -10.00      0.00
  12750.00    348.48      0.03    -10.00      0.00
  12800.00    348.65      0.03    -10.00      0.00
  12850.00    348.83      0.03    -10.00      0.00
  12900.00    349.00      0.03    -10.00      0.00
  12950.00    349.17      0.03    -10.00      0.00
  13000.00    349.34      0.03    -10.00      0.00
  13050.00    349.52      0.03    -10.00      0.00
  13100.00    349.69      0.03    -10.00      0.00
  13150.00    349.86      0.02    -10.00      0.00
  13200.00    350.04      0.02    -10.00      0.00
  13250.00    350.21      0.02    -10.00      0.00
  13300.00    350.43      0.02    -10.00      0.00
  13350.00    350.78      0.02    -10.00      0.00
  13400.00    351.14      0.02    -10.00      0.00
  13450.00    351.49      0.02    -10.00      0.00
  13500.00    351.85      0.02    -10.00      0.00
  13550.00    352.20      0.02    -10.00      0.00
  13600.00    352.55      0.02    -10.00      0.00
  13650.00    352.91      0.02    -10.00      0.00
  13700.00    353.26      0.02    -10.00      0.00
  13750.00    353.62      0.02    -10.00      0.00
  13800.00    353.97      0.02    -10.00      0.00
  13850.00    354.33      0.02    -10.00      0.00
  13900.00    354.68      0.01    -10.00      0.00
  13950.00    355.04      0.01    -10.00      0.00
  14000.00    355.39      0.01    -10.00      0.00
  14050.00    355.75      0.01    -10.00      0.00
  14100.00    356.10      0.01    -10.00      0.00
  14150.00    356.46      0.01    -10.00      0.00
  14200.00    356.86      0.01    -10.00      0.00
  14250.00    357.42      0.01    -10.00      0.00
  14300.00    357.98      0.01    -10.00      0.00
  14350.00    358.54      0.01    -10.00      0.00
  14400.00    359.10      0.01    -10.00      0.00
  14450.00    359.66      0.01    -10.00      0.00
  14500.00    360.22      0.01    -10.00      0.00
  14550.00    360.78      0.01    -10.00      0.00
  14600.00    361.34      0.01    -10.00      0.00
  14650.00    361.90      0.01    -10.00      0.00
  14700.00    362.46      0.01    -10.00      0.00
  14750.00    363.02      0.01    -10.00      0.00
  14800.00    363.58      0.01    -10.00      0.00
  14850.00    364.14      0.01    -10.00      0.00
  14900.00    364.70      0.01    -10.00      0.00
  14950.00    365.26      0.01    -10.00      0.00
  15000.00    365.82      0.01    -10.00      0.00
  15050.00    366.38      0.01    -10.00      0.00
  15100.00    366.94      0.01    -10.00      0.00
  15150.00    367.50      0.01    -10.00      0.00
  15200.00    368.06      0.01    -10.00      0.00
  15250.00    368.32      0.01    -10.00      0.00
  15300.00    368.32      0.01    -10.00      0.00
  15350.00    368.32      0.01    -10.00      0.00
  15400.00    368.32      0.01    -10.00      0.00
  15450.00    368.32      0.01    -10.00      0.00
  15500.00    368.32      0.01    -10.00      0.00
  15550.00    368.32      0.01    -10.00      0.00
  15600.00    368.32      0.01    -10.00      0.00
  15650.00    368.32      0.01    -10.00      0.00
  15700.00    368.32      0.01    -10.00      0.00
  15750.00    368.32      0.01    -10.00      0.00
  15800.00    368.32      0.01    -10.00      0.00
  15850.00    368.32      0.01    -10.00      0.00
  15900.00    368.32      0.01    -10.00      0.00
  15950.00    368.32      0.01    -10.00      0.00
  16000.00    368.32      0.01    -10.00      0.00
  16050.00    368.32      0.01    -10.00      0.00
  16100.00    368.32      0.01    -10.00      0.00
  16150.00    368.32      0.01    -10.00      0.00
  16200.00    368.32      0.01    -10.00      0.00
  16250.00    368.32      0.01    -10.00      0.00
  16300.00    368.32      0.01    -10.00      0.00
  16350.00    368.32      0.01    -10.00      0.00
  16400.00    368.32      0.01    -10.00      0.00
  16450.00    368.32      0.01    -10.00      0.00
  16500.00    368.32      0.01    -10.00      0.00
  16550.00    368.32      0.01    -10.00      0.00
  16600.00    368.32      0.01    -10.00      0.00
  16650.00    368.32      0.01    -10.00      0.00
  16700.00    368.32      0.01    -10.00      0.00
  16750.00    368.32      0.01    -10.00      0.00
  16800.00    368.32      0.01    -10.00      0.00
  16850.00    368.32      0.01    -10.00      0.00
  16900.00    368.32      0.01    -10.00      0.00
  16950.00    368.32      0.01    -10.00      0.00
  17000.00    368.32      0.01    -10.00      0.00
  17050.00    368.32      0.01    -10.00      0.00
  17100.00    368.32      0.01    -10.00      0.00
  17150.00    368.32      0.01    -10.00      0.00
  17200.00    368.32      0.01    -10.00      0.00
  17250.00    368.32      0.01    -10.00      0.00
  17300.00    368.32      0.01    -10.00      0.00
  17350.00    368.32      0.01    -10.00      0.00
  17400.00    368.32      0.01    -10.00      0.00
  17450.00    368.32      0.01    -10.00      0.00
  17500.00    368.32      0.01    -10.00      0.00
  17550.00    368.32      0.01    -10.00      0.00
  17600.00    368.32      0.01    -10.00      0.00
  17650.00    368.32      0.01    -10.00      0.00
  17700.00    368.32      0.01    -10.00      0.00
  17750.00    368.32      0.01    -10.00      0.00
  17800.00    368.32      0.01    -10.00      0.00
  17850.00    368.32      0.01    -10.00      0.00
  17900.00    368.32      0.01    -10.00      0.00
  17950.00    368.32      0.01    -10.00      0.00
  18000.00    368.32      0.01    -10.00      0.00
  18050.00    368.32      0.01    -10.00      0.00
  18100.00    368.32      0.01    -10.00      0.00
  18150.00    368.32      0.01    -10.00      0.00
  18200.00    368.32      0.01    -10.00      0.00
  18250.00    368.32      0.01    -10.00      0.00
  18300.00    368.32      0.01    -10.00      0.00
  18350.00    368.32      0.01    -10.00      0.00
  18400.00    368.32      0.01    -10.00      0.00
  18450.00    368.32      0.01    -10.00      0.00
  18500.00    368.32      0.01    -10.00      0.00
  18550.00    368.32      0.01    -10.00      0.00
  18600.00    368.32      0.01    -10.00      0.00
  18650.00    368.32      0.01    -10.00      0.00
  18700.00    368.32      0.01    -10.00      0.00
  18750.00    368.32      0.01    -10.00      0.00
  18800.00    368.32      0.01    -10.00      0.00
  18850.00    368.32      0.01    -10.00      0.00
  18900.00    368.32      0.01    -10.00      0.00
  18950.00    368.32      0.01    -10.00      0.00
  19000.00    368.32      0.01    -10.00      0.00
  19050.00    368.32      0.01    -10.00      0.00
  19100.00    368.32      0.01    -10.00      0.00
  19150.00    368.32      0.01    -10.00      0.00
  19200.00    368.32      0.01    -10.00      0.00
  19250.00    368.32      0.01    -10.00      0.00
  19300.00    368.32      0.01    -10.00      0.00
  19350.00    368.32      0.01    -10.00      0.00
  19400.00    368.32      0.01    -10.00      0.00
  19450.00    368.32      0.01    -10.00      0.00
  19500.00    368.32      0.01    -10.00      0.00
  19550.00    368.32      0.01    -10.00      0.00
  19600.00    368.32      0.01    -10.00      0.00
  19650.00    368.32      0.01    -10.00      0.00
  19700.00    368.32      0.01    -10.00      0.00
  19750.00    368.32      0.01    -10.00      0.00
  19800.00    368.32      0.01    -10.00      0.00
  19850.00    368.32      0.01    -10.00      0.00
  19900.00    368.32      0.01    -10.00      0.00
  19950.00    368.32      0.01    -10.00      0.00
  20000.00    368.32      0.01    -10.00      0.00
  20050.00    368.32      0.01    -10.00      0.00
  20100.00    368.32      0.01    -10.00      0.00
  20150.00    368.32      0.01    -10.00      0.00
  20200.00    368.32      0.01    -10.00      0.00
  20250.00    368.32      0.01    -10.00      0.00
  20300.00    368.32      0.01    -10.00      0.00
  20350.00    368.32      0.01    -10.00      0.00
  20400.00    368.32      0.01    -10.00      0.00
  20450.00    368.32      0.01    -10.00      0.00
  20500.00    368.32      0.01    -10.00      0.00
  20550.00    368.32      0.01    -10.00      0.00
  20600.00    368.32      0.01    -10.00      0.00
  20650.00    368.32      0.01    -10.00      0.00
  20700.00    368.32      0.01    -10.00      0.00
  20750.00    368.32      0.01    -10.00      0.00
  20800.00    368.32      0.01    -10.00      0.00
  20850.00    368.32      0.01    -10.00      0.00
  20900.00    368.32      0.01    -10.00      0.00
  20950.00    368.32      0.01    -10.00      0.00
  21000.00    368.32      0.01    -10.00      0.00
  21050.00    368.32      0.01    -10.00      0.00
  21100.00    368.32      0.01    -10.00      0.00
  21150.00    368.32      0.01    -10.00      0.00
  21200.00    368.32      0.01    -10.00      0.00
  21250.00    368.32      0.01    -10.00      0.00
  21300.00    368.32      0.01    -10.00      0.00
  21350.00    368.32      0.01    -10.00      0.00
  21400.00    368.32      0.01    -10.00      0.00
  21450.00    368.32      0.01    -10.00      0.00
  21500.00    368.32      0.01    -10.00      0.00
  21550.00    368.32      0.01    -10.00      0.00
  21600.00    368.32      0.01    -10.00      0.00
  21650.00    368.32      0.01    -10.00      0.00
  21700.00    368.32      0.01    -10.00      0.00
  21750.00    368.32      0.01    -10.00      0.00
  21800.00    368.32      0.01    -10.00      0.00
  21850.00    368.32      0.01    -10.00      0.00
  21900.00    368.32      0.01    -10.00      0.00
  21950.00    368.32      0.01    -10.00      0.00
  22000.00    368.32      0.01    -10.00      0.00
  22050.00    368.32      0.01    -10.00      0.00
  22100.00    368.32      0.01    -10.00      0.00
  22150.00    368.32      0.01    -10.00      0.00
  22200.00    368.32      0.01    -10.00      0.00
  22250.00    368.32      0.01    -10.00      0.00
  22300.00    368.32      0.01    -10.00      0.00
  22350.00    368.32      0.01    -10.00      0.00
  22400.00    368.32      0.01    -10.00      0.00
  22450.00    368.32      0.01    -10.00      0.00
  22500.00    368.32      0.01    -10.00      0.00
  22550.00    368.32      0.01    -10.00      0.00
  22600.00    368.32      0.01    -10.00      0.00
  22650.00    368.32      0.01    -10.00      0.00
  22700.00    368.32      0.01    -10.00      0.00
  22750.00    368.32      0.01    -10.00      0.00
  22800.00    368.32      0.01    -10.00      0.00
  22850.00    368.32      0.01    -10.00      0.00
  22900.00    368.32      0.01    -10.00      0.00
  22950.00    368.32      0.01    -10.00      0.00
  23000.00    368.32      0.01    -10.00      0.00
  23050.00    368.32      0.01    -10.00      0.00
  23100.00    368.32      0.01    -10.00      0.00
  23150.00    368.32      0.01    -10.00      0.00
  23200.00    368.32      0.01    -10.00      0.00
  23250.00    368.32      0.01    -10.00      0.00
  23300.00    368.32      0.01    -10.00      0.00
  23350.00    368.32      0.01    -10.00      0.00
  23400.00    368.32      0.01    -10.00      0.00
  23450.00    368.32      0.01    -10.00      0.00
  23500.00    368.32      0.01    -10.00      0.00
  23550.00    368.32      0.01    -10.00      0.00
  23600.00    368.32      0.01    -10.00      0.00
  23650.00    368.32      0.01    -10.00      0.00
  23700.00    368.32      0.01    -10.00      0.00
  23750.00    368.32      0.01    -10.00      0.00
  23800.00    368.32      0.01    -10.00      0.00
  23850.00    368.32      0.01    -10.00      0.00
  23900.00    368.32      0.01    -10.00      0.00
  23950.00    368.32      0.01    -10.00      0.00
  24000.00    368.32      0.01    -10.00      0.00
  24050.00    368.32      0.01    -10.00      0.00
  24100.00    368.32      0.01    -10.00      0.00
  24150.00    368.32      0.01    -10.00      0.00
  24200.00    368.32      0.01    -10.00      0.00
  24250.00    368.32      0.01    -10.00      0.00
  24300.00    368.32      0.01    -10.00      0.00
  24350.00    368.32      0.01    -10.00      0.00
  24400.00    368.32      0.01    -10.00      0.00
  24450.00    368.32      0.01    -10.00      0.00
  24500.00    368.32      0.01    -10.00      0.00
  24550.00    368.32      0.01    -10.00      0.00
  24600.00    368.32      0.01    -10.00      0.00
  24650.00    368.32      0.01    -10.00      0.00
  24700.00    368.32      0.01    -10.00      0.00
  24750.00    368.32      0.01    -10.00      0.00
  24800.00    368.32      0.01    -10.00      0.00
  24850.00    368.32      0.01    -10.00      0.00
  24900.00    368.32      0.01    -10.00      0.00
  24950.00    368.32      0.01    -10.00      0.00
  25000.00    368.32      0.01    -10.00      0.00
  25050.00    368.32      0.01    -10.00      0.00
  25100.00    368.32      0.01    -10.00      0.00
  25150.00    368.32      0.01    -10.00      0.00
  25200.00    368.32      0.01    -10.00      0.00
  25250.00    368.32      0.01    -10.00      0.00
  25300.00    368.32      0.01    -10.00      0.00
  25350.00    368.32      0.01    -10.00      0.00
  25400.00    368.32      0.01    -10.00      0.00
  25450.00    368.32      0.01    -10.00      0.00
  25500.00    368.32      0.01    -10.00      0.00
  25550.00    368.32      0.01    -10.00      0.00
  25600.00    368.32      0.01    -10.00      0.00
  25650.00    368.32      0.01    -10.00      0.00
  25700.00    368.32      0.01    -10.00      0.00
  25750.00    368.32      0.01    -10.00      0.00
  25800.00    368.32      0.01    -10.00      0.00
  25850.00    368.32      0.01    -10.00      0.00
  25900.00    368.32      0.01    -10.00      0.00
  25950.00    368.32      0.01    -10.00      0.00
  26000.00    368.32      0.01    -10.00      0.00
  26050.00    368.32      0.01    -10.00      0.00
  26100.00    368.32      0.01    -10.00      0.00
  26150.00    368.32      0.01    -10.00      0.00
  26200.00    368.32      0.01    -10.00      0.00
  26250.00    368.32      0.01    -10.00      0.00
  26300.00    368.32      0.01    -10.00      0.00
  26350.00    368.32      0.01    -10.00      0.00
  26400.00    368.32      0.01    -10.00      0.00
  26450.00    368.32      0.01    -10.00      0.00
  26500.00    368.32      0.01    -10.00      0.00
  26550.00    368.32      0.01    -10.00      0.00
  26600.00    368.32      0.01    -10.00      0.00
  26650.00    368.32      0.01    -10.00      0.00
  26700.00    368.32      0.01    -10.00      0.00
  26750.00    368.32      0.01    -10.00      0.00
  26800.00    368.32      0.01    -10.00      0.00
  26850.00    368.32      0.01    -10.00      0.00
  26900.00    368.32      0.01    -10.00      0.00
  26950.00    368.32      0.01    -10.00      0.00
  27000.00    368.32      0.01    -10.00      0.00
  27050.00    368.32      0.01    -10.00      0.00
  27100.00    368.32      0.01    -10.00      0.00
  27150.00    368.32      0.01    -10.00      0.00
  27200.00    368.32      0.01    -10.00      0.00
  27250.00    368.32      0.01    -10.00      0.00
  27300.00    368.32      0.01    -10.00      0.00
  27350.00    368.32      0.01    -10.00      0.00
  27400.00    368.32      0.01    -10.00      0.00
  27450.00    368.32      0.01    -10.00      0.00
  27500.00    368.32      0.01    -10.00      0.00
  27550.00    368.32      0.01    -10.00      0.00
  27600.00    368.32      0.01    -10.00      0.00
  27650.00    368.32      0.01    -10.00      0.00
  27700.00    368.32      0.01    -10.00      0.00
  27750.00    368.32      0.01    -10.00      0.00
  27800.00    368.32      0.01    -10.00      0.00
  27850.00    368.32      0.01    -10.00      0.00
  27900.00    368.32      0.01    -10.00      0.00
  27950.00    368.32      0.01    -10.00      0.00
  28000.00    368.32      0.01    -10.00      0.00
  28050.00    368.32      0.01    -10.00      0.00
  28100.00    368.32      0.01    -10.00      0.00
  28150.00    368.32      0.01    -10.00      0.00
  28200.00    368.32      0.01    -10.00      0.00
  28250.00    368.32      0.01    -10.00      0.00
  28300.00    368.32      0.01    -10.00      0.00
  28350.00    368.32      0.01    -10.00      0.00
  28400.00    368.32      0.01    -10.00      0.00
  28450.00    368.32      0.01    -10.00      0.00
  28500.00    368.32      0.01    -10.00      0.00
  28550.00    368.32      0.01    -10.00      0.00
  28600.00    368.32      0.01    -10.00      0.00
  28650.00    368.32      0.01    -10.00      0.00
  28700.00    368.32      0.01    -10.00      0.00
  28750.00    368.32      0.01    -10.00      0.00
  28800.00    368.32      0.01    -10.00      0.00
  28850.00    368.32      0.01    -10.00      0.00
  28900.00    368.32      0.01    -10.00      0.00
  28950.00    368.32      0.01    -10.00      0.00
  29000.00    368.32      0.01    -10.00      0.00
  29050.00    368.32      0.01    -10.00      0.00
  29100.00    368.32      0.01    -10.00      0.00
  29150.00    368.32      0.01    -10.00      0.00
  29200.00    368.32      0.01    -10.00      0.00
  29250.00    368.32      0.01    -10.00      0.00
  29300.00    368.32      0.01    -10.00      0.00