 &time_control
 run_days                            = 0,
 run_hours                           = 0,
 run_minutes                         = 22,
 run_seconds                         = 0,
 start_year                          = 1969,
 start_month                         = 12,
 start_day                           = 31,
 start_hour                          = 23,
 start_minute                        = 58,
 start_second                        = 00,
 history_interval                    = 10,
 history_begin_m                     = 04,
 frames_per_outfile                  = 1,
 restart                             = .false.,
 restart_interval                    = 20,
 io_form_history                     = 11
 io_form_restart                     = 102
 io_form_input                       = 11
 io_form_boundary                    = 11
! auxhist23_outname                   = "/global/cscratch1/sd/qnicolas/WRF/WRFV4_bp_crosseq/test/em_beta_plane/wrfpout_d<domain>_<date>"
! auxhist23_interval                  = 60,
! frames_per_auxhist23                = 240,
! io_form_auxhist23                   = 2,
 nocolons                            = T,
 /

 &domains
 numtiles                            = 1
 nproc_x                             = 15
 nproc_y                             = 88
 use_adaptive_time_step              = .false.,
 time_step                           = 24,
 time_step_fract_num                 = 0,
 time_step_fract_den                 = 1,
 max_dom                             = 1,
 s_we                                = 1,
 e_we                                = 1501,
 s_sn                                = 1,
 e_sn                                = 3501,
 s_vert                              = 1,
 e_vert                              = 39,
 dx                                  = 4000,
 dy                                  = 4000,
 ztop                                = 16000,
 grid_id                             = 1,
 parent_id                           = 0,
 i_parent_start                      = 0,
 j_parent_start                      = 0,
 parent_grid_ratio                   = 1,
 parent_time_step_ratio              = 1,
 feedback                            = 1,
 smooth_option                       = 0
 /

 &physics
 mp_physics                          = 8,
 cu_physics                          = 0,
 ra_lw_physics                       = 24,
 ra_sw_physics                       = 24,
 bl_pbl_physics                      = 2,
 sf_sfclay_physics                   = 2,
 sf_surface_physics                  = 4,
 radt                                = 60,
 bldt                                = 0,
 cudt                                = 5,
 isfflx                              = 1
 /

 &noah_mp
 dveg                                = 4,
 opt_tbot                            = 1, !used to enforce zero flux at the bottom of the soil layer 
 opt_crs                             = 1,
 opt_sfc                             = 1,
 opt_btr                             = 1,
 /

 &fdda
 /

 &dynamics
 hybrid_opt                          = 2, 
 rk_ord                              = 3,
 diff_opt                            = 1,
 km_opt                              = 1,
 damp_opt                            = 1,
 zdamp                               = 10000.,
 dampcoef                            = 0.05,
 khdif                               = 0,
 kvdif                               = 0,
 smdiv                               = 0.1,
 emdiv                               = 0.01,
 epssm                               = 0.1,
 time_step_sound                     = 4,
 h_mom_adv_order                     = 5,
 v_mom_adv_order                     = 3,
 h_sca_adv_order                     = 5,
 v_sca_adv_order                     = 3,
 non_hydrostatic                     = .true.,
 /

 &bdy_control
 periodic_x                          = .true., 
 symmetric_xs                        = .false.,
 symmetric_xe                        = .false.,
 open_xs                             = .false.,
 open_xe                             = .false.,
 periodic_y                          = .false.,
 symmetric_ys                        = .true., 
 symmetric_ye                        = .true., 
 open_ys                             = .false.,
 open_ye                             = .false.,
 /

 &grib2
 /

 &namelist_quilt
 nio_tasks_per_group = 8,
 nio_groups = 8,
 /

 &ideal
 ideal_case = 7
 /

! &diags
! p_lev_diags = 1,
! num_press_levels = 30,
! press_levels = 100000,97500,95000,92500,90000,87500,85000,82500,80000,77500,75000,70000,65000,60000,55000,50000,45000,40000,35000,30000,25000,22500,20000,17500,15000,12500,10000,7000,5000,1000
! /
