 &time_control
 run_days                            = 50,
 run_hours                           = 0,
 run_minutes                         = 0,
 run_seconds                         = 0,
 start_year                          = 1970,
 start_month                         = 01,
 start_day                           = 01,
 start_hour                          = 00,
 start_minute                        = 00,
 start_second                        = 00,
 history_interval                    = 360,
 frames_per_outfile                  = 40,
 restart                             = .false.,
 restart_interval                    = 7200,
 io_form_history                     = 11
 io_form_restart                     = 11
 io_form_input                       = 11
 io_form_boundary                    = 11
 history_outname                     = "/global/cscratch1/sd/qnicolas/wrfdata/saved/channel.wrf.100x2.mountain.60lev.dry.10km/wrfout_d<domain>_<date>"
 rst_outname                         = "/global/cscratch1/sd/qnicolas/wrfdata/saved/channel.wrf.100x2.mountain.60lev.dry.10km/wrfrst_d<domain>_<date>"
 auxhist23_outname                   = "/global/cscratch1/sd/qnicolas/wrfdata/saved/channel.wrf.100x2.mountain.60lev.dry.10km/wrfpout_d<domain>_<date>"
 auxhist23_interval                  = 60,
 frames_per_auxhist23                = 240,
 io_form_auxhist23                   = 11,
 nocolons			     = .true.
 /

 &domains
 numtiles 			     = 1
 nproc_x			     = 65
 nproc_y			     = 2
 use_adaptive_time_step              = .false.,
 time_step                           = 50,
 time_step_fract_num                 = 0,
 time_step_fract_den                 = 1,
 max_dom                             = 1,
 s_we                                = 1,
 e_we                                = 976,
 s_sn                                = 1,
 e_sn                                = 21,
 s_vert                              = 1,
 e_vert                              = 61,
 dx                                  = 10000,
 dy                                  = 10000,
 ztop                                = 30000,
 grid_id                             = 1,
 parent_id                           = 0,
 i_parent_start                      = 0,
 j_parent_start                      = 0,
 parent_grid_ratio                   = 1,
 parent_time_step_ratio              = 1,
 feedback                            = 1,
 smooth_option                       = 0
 /

 &physics
 mp_physics                          = 8,
 no_mp_heating                       = 1,
 cu_physics                          = 0,
 ra_lw_physics                       = 0,
 ra_sw_physics                       = 0,
 bl_pbl_physics                      = 1,
 sf_sfclay_physics                   = 91,
 sf_surface_physics                  = 0,
 radt                                = 60,
 bldt                                = 0,
 cudt                                = 5,
 isfflx                              = 1
 /

 &fdda
 /

 &dynamics
 hybrid_opt                          = 2, 
 rk_ord                              = 3,
 diff_opt                            = 1,
 km_opt                              = 1,
 damp_opt                            = 1,
 zdamp                               = 10000.,
 dampcoef                            = 0.05,
 khdif                               = 300,
 kvdif                               = 100,
 smdiv                               = 0.1,
 emdiv                               = 0.01,
 epssm                               = 0.1,
 time_step_sound                     = 4,
 h_mom_adv_order                     = 5,
 v_mom_adv_order                     = 3,
 h_sca_adv_order                     = 5,
 v_sca_adv_order                     = 3,
 non_hydrostatic                     = .true.,
 pert_coriolis                       = .true.,
 /

 &bdy_control
 periodic_x                          = .true., 
 symmetric_xs                        = .false.,
 symmetric_xe                        = .false.,
 open_xs                             = .false.,
 open_xe                             = .false.,
 periodic_y                          = .true.,
 symmetric_ys                        = .false., 
 symmetric_ye                        = .false., 
 open_ys                             = .false.,
 open_ye                             = .false.,
 /

 &grib2
 /

 &namelist_quilt
 nio_tasks_per_group = 1,
 nio_groups = 1,
 /

 &ideal
 ideal_case = 7
 /

 &diags
 p_lev_diags = 1,
 num_press_levels = 29,
 press_levels = 99000,97500,95000,92500,90000,87500,85000,82500,80000,77500,75000,70000,65000,60000,55000,50000,45000,40000,35000,30000,25000,22500,20000,17500,15000,12500,10000,7500,5000
 /
